Global frequency set at 1000000000000 ticks per second
Using Wireless Routing Algorithm
calculateNUChipletVector(string nonuniform_chiplet_input)

base_router_list:
 0,  0,  0,  0, 
 0,  0,  0,  0, 
 0,  0,  0,  0, 
 0,  0,  0,  0, 
m_wireless_list: 17, 30, 42, 49, 52, 55, 61, 70, 
gem5 Simulator System.  http://gem5.org
gem5 is copyrighted software; use the --copyright option for details.

gem5 version [DEVELOP-FOR-V20.2]
gem5 compiled Mar 29 2021 00:51:50
gem5 started Mar 30 2021 19:54:24
gem5 executing on grid42, pid 1119339
command line: condor_exec.exe /home/aw868/new_aw868_gem5/configs/example/garnet_synth_traffic.py --num-cpus=64 --num-dirs=64 --network=garnet --topology=Wireless_NUChiplets --mesh-rows=4 --mesh-cols=4 --z-depth=4 --nu-chiplets-input=0,0,3,3 --sim-cycles=1000000 --synthetic=uniform_random --wireless-input-pattern=r --wireless-input=2,1,4,1 --routing-algorithm=5 --vcs-per-vnet=4 --injectionrate=0.5

info: Standard input is not a terminal, disabling listeners.
File: Wireless_NUChiplets.py
len(nodes) (includes caches and directories):  128
wirelessInput:  [2, 1, 4, 1]
randomly placed wireless
wirelessRouters:  [30, 17, 42, 49, 52, 61, 55, 70]
 32  32  32  32 
 32  32  32  32 
 32  32   4  32 
 32  32  32  32 

 32   4  32  32 
 32  32  32  32 
  4  32  32   4 
 32   4  32  32 

 32  32  32  32 
 32  32   4  32 
 32  32  32  32 
 32  32  32  32 

 32  32   4  32 
 32  32  32  32 
 32  32  32  32 
 32   4  32  32 

 32  32  32  32 
 32  32  32  32 
 32  32  32  32 
 32  32  32  32 

number of user specified routers:  64
number of routers in layer 0:  16
total number of routers:  80
x_depth:  4
y_depth:  4
true_z_depth 5
total routers created:  80
cache_nodes:  64
dir_nodes:  64

NUM EAST-WEST LINKS =  60
NUM WEST-EAST LINKS =  60
NUM NORTH-SOUTH LINKS =  60
NUM SOUTH-NORTH LINKS =  60
NUM UP-DOWN LINKS =  64
NUM DOWN-UP LINKS =  64
WIRELESS LINKS =  56
TOTAL NUM LINKS =  424 

##########################################################################
Current Coordinates: (2,3,4)
Current ID: 78 | Current Sector: 0
Dest Coordinates: (1,3,3)
Dest ID: 61 | Destination Sector: 0
wirelessCapability: 0
outport_dirn: West
##########################################################################
Current Coordinates: (1,3,4)
Current ID: 77 | Current Sector: 0
Dest Coordinates: (1,2,2)
Dest ID: 41 | Destination Sector: 0
wirelessCapability: 0
outport_dirn: South
##########################################################################
Current Coordinates: (0,3,4)
Current ID: 76 | Current Sector: 0
Dest Coordinates: (1,0,3)
Dest ID: 49 | Destination Sector: 0
wirelessCapability: 0
outport_dirn: East
##########################################################################
Current Coordinates: (3,2,4)
Current ID: 75 | Current Sector: 0
Dest Coordinates: (3,0,3)
Dest ID: 51 | Destination Sector: 0
wirelessCapability: 0
outport_dirn: South
##########################################################################
Current Coordinates: (2,1,4)
Current ID: 70 | Current Sector: 0
Dest Coordinates: (3,3,3)
Dest ID: 63 | Destination Sector: 0
wirelessCapability: 1
outport_dirn: Transmit_55
##########################################################################
Current Coordinates: (1,1,4)
Current ID: 69 | Current Sector: 0
Dest Coordinates: (0,1,2)
Dest ID: 36 | Destination Sector: 0
wirelessCapability: 0
outport_dirn: West
##########################################################################
Current Coordinates: (0,1,4)
Current ID: 68 | Current Sector: 0
Dest Coordinates: (3,3,1)
Dest ID: 31 | Destination Sector: 0
wirelessCapability: 0
outport_dirn: East
##########################################################################
Current Coordinates: (0,0,4)
Current ID: 64 | Current Sector: 0
Dest Coordinates: (1,3,2)
Dest ID: 45 | Destination Sector: 0
wirelessCapability: 0
outport_dirn: East
##########################################################################
Current Coordinates: (0,3,3)
Current ID: 60 | Current Sector: 0
Dest Coordinates: (0,1,2)
Dest ID: 36 | Destination Sector: 0
wirelessCapability: 0
outport_dirn: South
##########################################################################
Current Coordinates: (3,2,3)
Current ID: 59 | Current Sector: 0
Dest Coordinates: (2,0,1)
Dest ID: 18 | Destination Sector: 0
wirelessCapability: 0
outport_dirn: West
##########################################################################
Current Coordinates: (1,2,3)
Current ID: 57 | Current Sector: 0
Dest Coordinates: (2,2,4)
Dest ID: 74 | Destination Sector: 0
wirelessCapability: 0
outport_dirn: East
##########################################################################
Current Coordinates: (0,2,3)
Current ID: 56 | Current Sector: 0
Dest Coordinates: (2,3,4)
Dest ID: 78 | Destination Sector: 0
wirelessCapability: 0
outport_dirn: East
##########################################################################
Current Coordinates: (3,1,3)
Current ID: 55 | Current Sector: 0
Dest Coordinates: (3,1,2)
Dest ID: 39 | Destination Sector: 0
wirelessCapability: 1
outport_dirn: Down
##########################################################################
Current Coordinates: (2,1,3)
Current ID: 54 | Current Sector: 0
Dest Coordinates: (2,0,2)
Dest ID: 34 | Destination Sector: 0
wirelessCapability: 0
outport_dirn: South
##########################################################################
Current Coordinates: (1,0,3)
Current ID: 49 | Current Sector: 0
Dest Coordinates: (3,3,2)
Dest ID: 47 | Destination Sector: 0
wirelessCapability: 1
outport_dirn: East
##########################################################################
Current Coordinates: (3,3,2)
Current ID: 47 | Current Sector: 0
Dest Coordinates: (2,1,3)
Dest ID: 54 | Destination Sector: 0
wirelessCapability: 0
outport_dirn: West
##########################################################################
Current Coordinates: (2,3,2)
Current ID: 46 | Current Sector: 0
Dest Coordinates: (3,1,3)
Dest ID: 55 | Destination Sector: 0
wirelessCapability: 0
outport_dirn: East
##########################################################################
Current Coordinates: (1,3,2)
Current ID: 45 | Current Sector: 0
Dest Coordinates: (3,2,2)
Dest ID: 43 | Destination Sector: 0
wirelessCapability: 0
outport_dirn: East
##########################################################################
Current Coordinates: (0,3,2)
Current ID: 44 | Current Sector: 0
Dest Coordinates: (2,1,4)
Dest ID: 70 | Destination Sector: 0
wirelessCapability: 0
outport_dirn: East
##########################################################################
Current Coordinates: (2,2,2)
Current ID: 42 | Current Sector: 0
Dest Coordinates: (3,2,4)
Dest ID: 75 | Destination Sector: 0
wirelessCapability: 1
outport_dirn: East
##########################################################################
Current Coordinates: (1,2,2)
Current ID: 41 | Current Sector: 0
Dest Coordinates: (1,0,1)
Dest ID: 17 | Destination Sector: 0
wirelessCapability: 0
outport_dirn: South
##########################################################################
Current Coordinates: (2,1,2)
Current ID: 38 | Current Sector: 0
Dest Coordinates: (1,0,1)
Dest ID: 17 | Destination Sector: 0
wirelessCapability: 0
outport_dirn: West
##########################################################################
Current Coordinates: (1,1,2)
Current ID: 37 | Current Sector: 0
Dest Coordinates: (2,3,4)
Dest ID: 78 | Destination Sector: 0
wirelessCapability: 0
outport_dirn: East
##########################################################################
Current Coordinates: (0,1,2)
Current ID: 36 | Current Sector: 0
Dest Coordinates: (3,3,3)
Dest ID: 63 | Destination Sector: 0
wirelessCapability: 0
outport_dirn: East
##########################################################################
Current Coordinates: (2,0,2)
Current ID: 34 | Current Sector: 0
Dest Coordinates: (1,1,4)
Dest ID: 69 | Destination Sector: 0
wirelessCapability: 0
outport_dirn: West
##########################################################################
Current Coordinates: (1,0,2)
Current ID: 33 | Current Sector: 0
Dest Coordinates: (2,3,4)
Dest ID: 78 | Destination Sector: 0
wirelessCapability: 0
outport_dirn: East
##########################################################################
Current Coordinates: (0,0,2)
Current ID: 32 | Current Sector: 0
Dest Coordinates: (3,2,2)
Dest ID: 43 | Destination Sector: 0
wirelessCapability: 0
outport_dirn: East
##########################################################################
Current Coordinates: (3,3,1)
Current ID: 31 | Current Sector: 0
Dest Coordinates: (3,0,3)
Dest ID: 51 | Destination Sector: 0
wirelessCapability: 0
outport_dirn: South
##########################################################################
Current Coordinates: (2,3,1)
Current ID: 30 | Current Sector: 0
Dest Coordinates: (2,1,1)
Dest ID: 22 | Destination Sector: 0
wirelessCapability: 1
outport_dirn: South
##########################################################################
Current Coordinates: (2,0,1)
Current ID: 18 | Current Sector: 0
Dest Coordinates: (1,1,1)
Dest ID: 21 | Destination Sector: 0
wirelessCapability: 0
outport_dirn: West
##########################################################################
Current Coordinates: (0,0,1)
Current ID: 16 | Current Sector: 0
Dest Coordinates: (3,0,4)
Dest ID: 67 | Destination Sector: 0
wirelessCapability: 0
outport_dirn: East
##########################################################################
Current Coordinates: (2,3,4)
Current ID: 78 | Current Sector: 0
Dest Coordinates: (0,2,2)
Dest ID: 40 | Destination Sector: 0
wirelessCapability: 0
outport_dirn: West
##########################################################################
Current Coordinates: (1,3,4)
Current ID: 77 | Current Sector: 0
Dest Coordinates: (1,0,3)
Dest ID: 49 | Destination Sector: 0
wirelessCapability: 0
outport_dirn: South
##########################################################################
Current Coordinates: (1,3,4)
Current ID: 77 | Current Sector: 0
Dest Coordinates: (1,3,3)
Dest ID: 61 | Destination Sector: 0
wirelessCapability: 0
outport_dirn: Down
##########################################################################
Current Coordinates: (3,1,4)
Current ID: 71 | Current Sector: 0
Dest Coordinates: (3,0,3)
Dest ID: 51 | Destination Sector: 0
wirelessCapability: 0
outport_dirn: South
##########################################################################
Current Coordinates: (3,1,3)
Current ID: 55 | Current Sector: 0
Dest Coordinates: (3,3,3)
Dest ID: 63 | Destination Sector: 0
wirelessCapability: 1
outport_dirn: North
##########################################################################
Current Coordinates: (2,1,4)
Current ID: 70 | Current Sector: 0
Dest Coordinates: (3,1,2)
Dest ID: 39 | Destination Sector: 0
wirelessCapability: 1
outport_dirn: Transmit_55
##########################################################################
Current Coordinates: (0,1,4)
Current ID: 68 | Current Sector: 0
Dest Coordinates: (0,1,2)
Dest ID: 36 | Destination Sector: 0
wirelessCapability: 0
outport_dirn: Down
##########################################################################
Current Coordinates: (1,1,4)
Current ID: 69 | Current Sector: 0
Dest Coordinates: (3,3,1)
Dest ID: 31 | Destination Sector: 0
wirelessCapability: 0
outport_dirn: East
##########################################################################
Current Coordinates: (0,2,3)
Current ID: 56 | Current Sector: 0
Dest Coordinates: (0,1,2)
Dest ID: 36 | Destination Sector: 0
wirelessCapability: 0
outport_dirn: South
##########################################################################
Current Coordinates: (2,2,3)
Current ID: 58 | Current Sector: 0
Dest Coordinates: (2,2,4)
Dest ID: 74 | Destination Sector: 0
wirelessCapability: 0
outport_dirn: Up
##########################################################################
Current Coordinates: (2,2,3)
Current ID: 58 | Current Sector: 0
Dest Coordinates: (2,0,1)
Dest ID: 18 | Destination Sector: 0
wirelessCapability: 0
outport_dirn: South
##########################################################################
Current Coordinates: (1,2,3)
Current ID: 57 | Current Sector: 0
Dest Coordinates: (2,3,4)
Dest ID: 78 | Destination Sector: 0
wirelessCapability: 0
outport_dirn: East
##########################################################################
Current Coordinates: (1,3,2)
Current ID: 45 | Current Sector: 0
Dest Coordinates: (2,1,4)
Dest ID: 70 | Destination Sector: 0
wirelessCapability: 0
outport_dirn: East
##########################################################################
Current Coordinates: (2,1,2)
Current ID: 38 | Current Sector: 0
Dest Coordinates: (2,3,4)
Dest ID: 78 | Destination Sector: 0
wirelessCapability: 0
outport_dirn: North
##########################################################################
Current Coordinates: (1,1,2)
Current ID: 37 | Current Sector: 0
Dest Coordinates: (3,3,3)
Dest ID: 63 | Destination Sector: 0
wirelessCapability: 0
outport_dirn: East
##########################################################################
Current Coordinates: (1,1,2)
Current ID: 37 | Current Sector: 0
Dest Coordinates: (1,0,1)
Dest ID: 17 | Destination Sector: 0
wirelessCapability: 0
outport_dirn: South
##########################################################################
Current Coordinates: (1,1,2)
Current ID: 37 | Current Sector: 0
Dest Coordinates: (1,0,1)
Dest ID: 17 | Destination Sector: 0
wirelessCapability: 0
outport_dirn: South
##########################################################################
Current Coordinates: (2,0,2)
Current ID: 34 | Current Sector: 0
Dest Coordinates: (2,3,4)
Dest ID: 78 | Destination Sector: 0
wirelessCapability: 0
outport_dirn: North
##########################################################################
Current Coordinates: (1,0,2)
Current ID: 33 | Current Sector: 0
Dest Coordinates: (3,2,2)
Dest ID: 43 | Destination Sector: 0
wirelessCapability: 0
outport_dirn: East
##########################################################################
Current Coordinates: (1,0,2)
Current ID: 33 | Current Sector: 0
Dest Coordinates: (1,1,4)
Dest ID: 69 | Destination Sector: 0
wirelessCapability: 0
outport_dirn: North
##########################################################################
Current Coordinates: (3,3,1)
Current ID: 31 | Current Sector: 0
Dest Coordinates: (1,3,3)
Dest ID: 61 | Destination Sector: 0
wirelessCapability: 0
outport_dirn: West
##########################################################################
Current Coordinates: (2,3,1)
Current ID: 30 | Current Sector: 0
Dest Coordinates: (3,1,3)
Dest ID: 55 | Destination Sector: 0
wirelessCapability: 1
outport_dirn: East
##########################################################################
Current Coordinates: (0,0,1)
Current ID: 16 | Current Sector: 0
Dest Coordinates: (3,2,3)
Dest ID: 59 | Destination Sector: 0
wirelessCapability: 0
outport_dirn: East
##########################################################################
Current Coordinates: (0,0,2)
Current ID: 32 | Current Sector: 0
Dest Coordinates: (0,2,4)
Dest ID: 72 | Destination Sector: 0
wirelessCapability: 0
outport_dirn: North
##########################################################################
Current Coordinates: (1,2,2)
Current ID: 41 | Current Sector: 0
Dest Coordinates: (3,0,4)
Dest ID: 67 | Destination Sector: 0
wirelessCapability: 0
outport_dirn: East
##########################################################################
Current Coordinates: (0,3,2)
Current ID: 44 | Current Sector: 0
Dest Coordinates: (1,2,3)
Dest ID: 57 | Destination Sector: 0
wirelessCapability: 0
outport_dirn: East
##########################################################################
Current Coordinates: (2,3,2)
Current ID: 46 | Current Sector: 0
Dest Coordinates: (3,2,1)
Dest ID: 27 | Destination Sector: 0
wirelessCapability: 0
outport_dirn: East
##########################################################################
Current Coordinates: (2,3,2)
Current ID: 46 | Current Sector: 0
Dest Coordinates: (3,2,2)
Dest ID: 43 | Destination Sector: 0
wirelessCapability: 0
outport_dirn: East
##########################################################################
Current Coordinates: (2,3,2)
Current ID: 46 | Current Sector: 0
Dest Coordinates: (2,1,3)
Dest ID: 54 | Destination Sector: 0
wirelessCapability: 0
outport_dirn: South
##########################################################################
Current Coordinates: (3,3,2)
Current ID: 47 | Current Sector: 0
Dest Coordinates: (2,3,3)
Dest ID: 62 | Destination Sector: 0
wirelessCapability: 0
outport_dirn: West
##########################################################################
Current Coordinates: (3,3,2)
Current ID: 47 | Current Sector: 0
Dest Coordinates: (3,1,3)
Dest ID: 55 | Destination Sector: 0
wirelessCapability: 0
outport_dirn: South
##########################################################################
Current Coordinates: (3,2,3)
Current ID: 59 | Current Sector: 0
Dest Coordinates: (1,1,2)
Dest ID: 37 | Destination Sector: 0
wirelessCapability: 0
outport_dirn: West
##########################################################################
Current Coordinates: (3,2,4)
Current ID: 75 | Current Sector: 0
Dest Coordinates: (2,1,2)
Dest ID: 38 | Destination Sector: 0
wirelessCapability: 0
outport_dirn: West
##########################################################################
Current Coordinates: (3,0,1)
Current ID: 19 | Current Sector: 0
Dest Coordinates: (0,1,2)
Dest ID: 36 | Destination Sector: 0
wirelessCapability: 0
outport_dirn: West
##########################################################################
Current Coordinates: (0,1,1)
Current ID: 20 | Current Sector: 0
Dest Coordinates: (0,0,2)
Dest ID: 32 | Destination Sector: 0
wirelessCapability: 0
outport_dirn: South
##########################################################################
Current Coordinates: (1,1,1)
Current ID: 21 | Current Sector: 0
Dest Coordinates: (2,1,1)
Dest ID: 22 | Destination Sector: 0
wirelessCapability: 0
outport_dirn: East
##########################################################################
Current Coordinates: (3,1,1)
Current ID: 23 | Current Sector: 0
Dest Coordinates: (0,3,4)
Dest ID: 76 | Destination Sector: 0
wirelessCapability: 0
outport_dirn: West
##########################################################################
Current Coordinates: (0,2,1)
Current ID: 24 | Current Sector: 0
Dest Coordinates: (2,3,3)
Dest ID: 62 | Destination Sector: 0
wirelessCapability: 0
outport_dirn: East
##########################################################################
Current Coordinates: (3,2,1)
Current ID: 27 | Current Sector: 0
Dest Coordinates: (3,3,3)
Dest ID: 63 | Destination Sector: 0
wirelessCapability: 0
outport_dirn: North
##########################################################################
Current Coordinates: (3,2,1)
Current ID: 27 | Current Sector: 0
Dest Coordinates: (3,0,3)
Dest ID: 51 | Destination Sector: 0
wirelessCapability: 0
outport_dirn: South
##########################################################################
Current Coordinates: (1,3,1)
Current ID: 29 | Current Sector: 0
Dest Coordinates: (1,2,3)
Dest ID: 57 | Destination Sector: 0
wirelessCapability: 0
outport_dirn: South
##########################################################################
Current Coordinates: (0,2,2)
Current ID: 40 | Current Sector: 0
Dest Coordinates: (3,1,1)
Dest ID: 23 | Destination Sector: 0
wirelessCapability: 0
outport_dirn: East
##########################################################################
Current Coordinates: (3,2,2)
Current ID: 43 | Current Sector: 0
Dest Coordinates: (2,1,4)
Dest ID: 70 | Destination Sector: 0
wirelessCapability: 0
outport_dirn: West
##########################################################################
Current Coordinates: (2,0,3)
Current ID: 50 | Current Sector: 0
Dest Coordinates: (1,0,2)
Dest ID: 33 | Destination Sector: 0
wirelessCapability: 0
outport_dirn: West
##########################################################################
Current Coordinates: (2,0,3)
Current ID: 50 | Current Sector: 0
Dest Coordinates: (2,0,2)
Dest ID: 34 | Destination Sector: 0
wirelessCapability: 0
outport_dirn: Down
##########################################################################
Current Coordinates: (1,1,3)
Current ID: 53 | Current Sector: 0
Dest Coordinates: (1,0,3)
Dest ID: 49 | Destination Sector: 0
wirelessCapability: 0
outport_dirn: South
##########################################################################
Current Coordinates: (1,3,3)
Current ID: 61 | Current Sector: 0
Dest Coordinates: (1,0,2)
Dest ID: 33 | Destination Sector: 0
wirelessCapability: 1
outport_dirn: South
##########################################################################
Current Coordinates: (2,3,3)
Current ID: 62 | Current Sector: 0
Dest Coordinates: (3,1,2)
Dest ID: 39 | Destination Sector: 0
wirelessCapability: 0
outport_dirn: East
##########################################################################
Current Coordinates: (3,3,3)
Current ID: 63 | Current Sector: 0
Dest Coordinates: (2,2,1)
Dest ID: 26 | Destination Sector: 0
wirelessCapability: 0
outport_dirn: West
##########################################################################
Current Coordinates: (1,0,4)
Current ID: 65 | Current Sector: 0
Dest Coordinates: (3,3,4)
Dest ID: 79 | Destination Sector: 0
wirelessCapability: 0
outport_dirn: East
##########################################################################
Current Coordinates: (1,0,4)
Current ID: 65 | Current Sector: 0
Dest Coordinates: (1,3,2)
Dest ID: 45 | Destination Sector: 0
wirelessCapability: 0
outport_dirn: North
##########################################################################
Current Coordinates: (2,0,4)
Current ID: 66 | Current Sector: 0
Dest Coordinates: (3,3,1)
Dest ID: 31 | Destination Sector: 0
wirelessCapability: 0
outport_dirn: East
##########################################################################
Current Coordinates: (3,0,4)
Current ID: 67 | Current Sector: 0
Dest Coordinates: (2,1,1)
Dest ID: 22 | Destination Sector: 0
wirelessCapability: 0
outport_dirn: West
##########################################################################
Current Coordinates: (1,2,4)
Current ID: 73 | Current Sector: 0
Dest Coordinates: (3,0,3)
Dest ID: 51 | Destination Sector: 0
wirelessCapability: 0
outport_dirn: East
##########################################################################
Current Coordinates: (1,2,4)
Current ID: 73 | Current Sector: 0
Dest Coordinates: (1,2,2)
Dest ID: 41 | Destination Sector: 0
wirelessCapability: 0
outport_dirn: Down
##########################################################################
Current Coordinates: (3,3,4)
Current ID: 79 | Current Sector: 0
Dest Coordinates: (1,1,3)
Dest ID: 53 | Destination Sector: 0
wirelessCapability: 0
outport_dirn: West
##########################################################################
Current Coordinates: (1,0,1)
Current ID: 17 | Current Sector: 0
Dest Coordinates: (3,0,4)
Dest ID: 67 | Destination Sector: 0
wirelessCapability: 1
outport_dirn: East
##########################################################################
Current Coordinates: (1,0,1)
Current ID: 17 | Current Sector: 0
Dest Coordinates: (1,1,1)
Dest ID: 21 | Destination Sector: 0
wirelessCapability: 1
outport_dirn: North
##########################################################################
Current Coordinates: (2,3,4)
Current ID: 78 | Current Sector: 0
Dest Coordinates: (1,1,3)
Dest ID: 53 | Destination Sector: 0
wirelessCapability: 0
outport_dirn: West
##########################################################################
Current Coordinates: (1,3,4)
Current ID: 77 | Current Sector: 0
Dest Coordinates: (3,2,4)
Dest ID: 75 | Destination Sector: 0
wirelessCapability: 0
outport_dirn: East
##########################################################################
Current Coordinates: (1,3,4)
Current ID: 77 | Current Sector: 0
Dest Coordinates: (0,2,2)
Dest ID: 40 | Destination Sector: 0
wirelessCapability: 0
outport_dirn: West
##########################################################################
Current Coordinates: (3,1,3)
Current ID: 55 | Current Sector: 0
Dest Coordinates: (3,1,2)
Dest ID: 39 | Destination Sector: 0
wirelessCapability: 1
outport_dirn: Down
##########################################################################
Current Coordinates: (2,1,4)
Current ID: 70 | Current Sector: 0
Dest Coordinates: (1,3,1)
Dest ID: 29 | Destination Sector: 0
wirelessCapability: 1
outport_dirn: Transmit_30
##########################################################################
Current Coordinates: (0,1,4)
Current ID: 68 | Current Sector: 0
Dest Coordinates: (2,2,1)
Dest ID: 26 | Destination Sector: 0
wirelessCapability: 0
outport_dirn: East
##########################################################################
Current Coordinates: (1,3,2)
Current ID: 45 | Current Sector: 0
Dest Coordinates: (0,1,1)
Dest ID: 20 | Destination Sector: 0
wirelessCapability: 0
outport_dirn: West
##########################################################################
Current Coordinates: (1,3,2)
Current ID: 45 | Current Sector: 0
Dest Coordinates: (1,2,3)
Dest ID: 57 | Destination Sector: 0
wirelessCapability: 0
outport_dirn: South
##########################################################################
Current Coordinates: (2,1,2)
Current ID: 38 | Current Sector: 0
Dest Coordinates: (2,3,4)
Dest ID: 78 | Destination Sector: 0
wirelessCapability: 0
outport_dirn: North
##########################################################################
Current Coordinates: (2,1,2)
Current ID: 38 | Current Sector: 0
Dest Coordinates: (3,3,3)
Dest ID: 63 | Destination Sector: 0
wirelessCapability: 0
outport_dirn: East
##########################################################################
Current Coordinates: (1,1,2)
Current ID: 37 | Current Sector: 0
Dest Coordinates: (1,1,4)
Dest ID: 69 | Destination Sector: 0
wirelessCapability: 0
outport_dirn: Up
##########################################################################
Current Coordinates: (1,0,2)
Current ID: 33 | Current Sector: 0
Dest Coordinates: (1,0,1)
Dest ID: 17 | Destination Sector: 0
wirelessCapability: 0
outport_dirn: Down
##########################################################################
Current Coordinates: (2,0,2)
Current ID: 34 | Current Sector: 0
Dest Coordinates: (1,3,4)
Dest ID: 77 | Destination Sector: 0
wirelessCapability: 0
outport_dirn: West
##########################################################################
Current Coordinates: (2,0,2)
Current ID: 34 | Current Sector: 0
Dest Coordinates: (3,2,2)
Dest ID: 43 | Destination Sector: 0
wirelessCapability: 0
outport_dirn: East
##########################################################################
Current Coordinates: (3,3,1)
Current ID: 31 | Current Sector: 0
Dest Coordinates: (3,3,3)
Dest ID: 63 | Destination Sector: 0
wirelessCapability: 0
outport_dirn: Up
##########################################################################
Current Coordinates: (2,3,1)
Current ID: 30 | Current Sector: 0
Dest Coordinates: (2,2,1)
Dest ID: 26 | Destination Sector: 0
wirelessCapability: 1
outport_dirn: South
##########################################################################
Current Coordinates: (1,0,1)
Current ID: 17 | Current Sector: 0
Dest Coordinates: (1,2,3)
Dest ID: 57 | Destination Sector: 0
wirelessCapability: 1
outport_dirn: North
##########################################################################
Current Coordinates: (0,0,1)
Current ID: 16 | Current Sector: 0
Dest Coordinates: (0,0,2)
Dest ID: 32 | Destination Sector: 0
wirelessCapability: 0
outport_dirn: Up
##########################################################################
Current Coordinates: (2,3,2)
Current ID: 46 | Current Sector: 0
Dest Coordinates: (3,0,1)
Dest ID: 19 | Destination Sector: 0
wirelessCapability: 0
outport_dirn: East
##########################################################################
Current Coordinates: (2,3,2)
Current ID: 46 | Current Sector: 0
Dest Coordinates: (2,1,4)
Dest ID: 70 | Destination Sector: 0
wirelessCapability: 0
outport_dirn: South
##########################################################################
Current Coordinates: (2,3,2)
Current ID: 46 | Current Sector: 0
Dest Coordinates: (2,3,3)
Dest ID: 62 | Destination Sector: 0
wirelessCapability: 0
outport_dirn: Up
##########################################################################
Current Coordinates: (3,3,2)
Current ID: 47 | Current Sector: 0
Dest Coordinates: (3,2,2)
Dest ID: 43 | Destination Sector: 0
wirelessCapability: 0
outport_dirn: South
##########################################################################
Current Coordinates: (2,0,1)
Current ID: 18 | Current Sector: 0
Dest Coordinates: (0,1,2)
Dest ID: 36 | Destination Sector: 0
wirelessCapability: 0
outport_dirn: West
##########################################################################
Current Coordinates: (3,1,1)
Current ID: 23 | Current Sector: 0
Dest Coordinates: (3,0,3)
Dest ID: 51 | Destination Sector: 0
wirelessCapability: 0
outport_dirn: South
##########################################################################
Current Coordinates: (0,2,2)
Current ID: 40 | Current Sector: 0
Dest Coordinates: (0,1,2)
Dest ID: 36 | Destination Sector: 0
wirelessCapability: 0
outport_dirn: South
##########################################################################
Current Coordinates: (3,2,2)
Current ID: 43 | Current Sector: 0
Dest Coordinates: (0,2,3)
Dest ID: 56 | Destination Sector: 0
wirelessCapability: 0
outport_dirn: West
##########################################################################
Current Coordinates: (3,2,2)
Current ID: 43 | Current Sector: 0
Dest Coordinates: (3,1,3)
Dest ID: 55 | Destination Sector: 0
wirelessCapability: 0
outport_dirn: South
##########################################################################
Current Coordinates: (2,1,3)
Current ID: 54 | Current Sector: 0
Dest Coordinates: (2,0,1)
Dest ID: 18 | Destination Sector: 0
wirelessCapability: 0
outport_dirn: South
##########################################################################
Current Coordinates: (2,0,3)
Current ID: 50 | Current Sector: 0
Dest Coordinates: (3,1,2)
Dest ID: 39 | Destination Sector: 0
wirelessCapability: 0
outport_dirn: East
##########################################################################
Current Coordinates: (3,3,3)
Current ID: 63 | Current Sector: 0
Dest Coordinates: (3,1,2)
Dest ID: 39 | Destination Sector: 0
wirelessCapability: 0
outport_dirn: South
##########################################################################
Current Coordinates: (1,1,4)
Current ID: 69 | Current Sector: 0
Dest Coordinates: (1,3,2)
Dest ID: 45 | Destination Sector: 0
wirelessCapability: 0
outport_dirn: North
##########################################################################
Current Coordinates: (2,0,4)
Current ID: 66 | Current Sector: 0
Dest Coordinates: (3,3,4)
Dest ID: 79 | Destination Sector: 0
wirelessCapability: 0
outport_dirn: East
##########################################################################
Current Coordinates: (2,0,4)
Current ID: 66 | Current Sector: 0
Dest Coordinates: (2,1,1)
Dest ID: 22 | Destination Sector: 0
wirelessCapability: 0
outport_dirn: North
##########################################################################
Current Coordinates: (3,0,4)
Current ID: 67 | Current Sector: 0
Dest Coordinates: (3,3,1)
Dest ID: 31 | Destination Sector: 0
wirelessCapability: 0
outport_dirn: North
##########################################################################
Current Coordinates: (3,0,4)
Current ID: 67 | Current Sector: 0
Dest Coordinates: (3,0,3)
Dest ID: 51 | Destination Sector: 0
wirelessCapability: 0
outport_dirn: Down
##########################################################################
Current Coordinates: (1,2,4)
Current ID: 73 | Current Sector: 0
Dest Coordinates: (3,1,1)
Dest ID: 23 | Destination Sector: 0
wirelessCapability: 0
outport_dirn: East
##########################################################################
Current Coordinates: (1,2,4)
Current ID: 73 | Current Sector: 0
Dest Coordinates: (1,0,3)
Dest ID: 49 | Destination Sector: 0
wirelessCapability: 0
outport_dirn: South
##########################################################################
Current Coordinates: (2,3,3)
Current ID: 62 | Current Sector: 0
Dest Coordinates: (0,0,1)
Dest ID: 16 | Destination Sector: 0
wirelessCapability: 0
outport_dirn: West
##########################################################################
Current Coordinates: (2,3,3)
Current ID: 62 | Current Sector: 0
Dest Coordinates: (2,2,1)
Dest ID: 26 | Destination Sector: 0
wirelessCapability: 0
outport_dirn: South
##########################################################################
Current Coordinates: (1,1,3)
Current ID: 53 | Current Sector: 0
Dest Coordinates: (1,0,2)
Dest ID: 33 | Destination Sector: 0
wirelessCapability: 0
outport_dirn: South
##########################################################################
Current Coordinates: (1,3,1)
Current ID: 29 | Current Sector: 0
Dest Coordinates: (0,1,2)
Dest ID: 36 | Destination Sector: 0
wirelessCapability: 0
outport_dirn: West
##########################################################################
Current Coordinates: (3,2,4)
Current ID: 75 | Current Sector: 0
Dest Coordinates: (2,0,4)
Dest ID: 66 | Destination Sector: 0
wirelessCapability: 0
outport_dirn: West
##########################################################################
Current Coordinates: (1,2,2)
Current ID: 41 | Current Sector: 0
Dest Coordinates: (3,3,2)
Dest ID: 47 | Destination Sector: 0
wirelessCapability: 0
outport_dirn: East
##########################################################################
Current Coordinates: (1,2,2)
Current ID: 41 | Current Sector: 0
Dest Coordinates: (3,1,1)
Dest ID: 23 | Destination Sector: 0
wirelessCapability: 0
outport_dirn: East
##########################################################################
Current Coordinates: (2,2,4)
Current ID: 74 | Current Sector: 0
Dest Coordinates: (2,2,3)
Dest ID: 58 | Destination Sector: 0
wirelessCapability: 0
outport_dirn: Down
##########################################################################
Current Coordinates: (2,2,4)
Current ID: 74 | Current Sector: 0
Dest Coordinates: (3,0,3)
Dest ID: 51 | Destination Sector: 0
wirelessCapability: 0
outport_dirn: East
##########################################################################
Current Coordinates: (2,2,4)
Current ID: 74 | Current Sector: 0
Dest Coordinates: (2,1,2)
Dest ID: 38 | Destination Sector: 0
wirelessCapability: 0
outport_dirn: South
##########################################################################
Current Coordinates: (0,2,4)
Current ID: 72 | Current Sector: 0
Dest Coordinates: (3,0,4)
Dest ID: 67 | Destination Sector: 0
wirelessCapability: 0
outport_dirn: East
##########################################################################
Current Coordinates: (3,1,4)
Current ID: 71 | Current Sector: 0
Dest Coordinates: (0,0,4)
Dest ID: 64 | Destination Sector: 0
wirelessCapability: 0
outport_dirn: West
##########################################################################
Current Coordinates: (2,2,3)
Current ID: 58 | Current Sector: 0
Dest Coordinates: (1,1,4)
Dest ID: 69 | Destination Sector: 0
wirelessCapability: 0
outport_dirn: West
##########################################################################
Current Coordinates: (2,2,3)
Current ID: 58 | Current Sector: 0
Dest Coordinates: (2,3,4)
Dest ID: 78 | Destination Sector: 0
wirelessCapability: 0
outport_dirn: North
##########################################################################
Current Coordinates: (2,2,3)
Current ID: 58 | Current Sector: 0
Dest Coordinates: (1,1,2)
Dest ID: 37 | Destination Sector: 0
wirelessCapability: 0
outport_dirn: West
##########################################################################
Current Coordinates: (1,2,3)
Current ID: 57 | Current Sector: 0
Dest Coordinates: (3,1,2)
Dest ID: 39 | Destination Sector: 0
wirelessCapability: 0
outport_dirn: East
##########################################################################
Current Coordinates: (1,2,3)
Current ID: 57 | Current Sector: 0
Dest Coordinates: (1,2,2)
Dest ID: 41 | Destination Sector: 0
wirelessCapability: 0
outport_dirn: Down
##########################################################################
Current Coordinates: (3,0,3)
Current ID: 51 | Current Sector: 0
Dest Coordinates: (2,2,2)
Dest ID: 42 | Destination Sector: 0
wirelessCapability: 0
outport_dirn: West
##########################################################################
Current Coordinates: (0,0,3)
Current ID: 48 | Current Sector: 0
Dest Coordinates: (1,0,4)
Dest ID: 65 | Destination Sector: 0
wirelessCapability: 0
outport_dirn: East
##########################################################################
Current Coordinates: (3,1,2)
Current ID: 39 | Current Sector: 0
Dest Coordinates: (1,1,3)
Dest ID: 53 | Destination Sector: 0
wirelessCapability: 0
outport_dirn: West
##########################################################################
Current Coordinates: (0,1,2)
Current ID: 36 | Current Sector: 0
Dest Coordinates: (1,0,3)
Dest ID: 49 | Destination Sector: 0
wirelessCapability: 0
outport_dirn: East
##########################################################################
Current Coordinates: (0,1,2)
Current ID: 36 | Current Sector: 0
Dest Coordinates: (0,2,4)
Dest ID: 72 | Destination Sector: 0
wirelessCapability: 0
outport_dirn: North
##########################################################################
Current Coordinates: (3,0,2)
Current ID: 35 | Current Sector: 0
Dest Coordinates: (0,2,3)
Dest ID: 56 | Destination Sector: 0
wirelessCapability: 0
outport_dirn: West
##########################################################################
Current Coordinates: (1,2,1)
Current ID: 25 | Current Sector: 0
Dest Coordinates: (3,1,2)
Dest ID: 39 | Destination Sector: 0
wirelessCapability: 0
outport_dirn: East
##########################################################################
Current Coordinates: (1,2,1)
Current ID: 25 | Current Sector: 0
Dest Coordinates: (2,3,3)
Dest ID: 62 | Destination Sector: 0
wirelessCapability: 0
outport_dirn: East
##########################################################################
Current Coordinates: (1,2,1)
Current ID: 25 | Current Sector: 0
Dest Coordinates: (1,2,3)
Dest ID: 57 | Destination Sector: 0
wirelessCapability: 0
outport_dirn: Up
##########################################################################
Current Coordinates: (2,1,1)
Current ID: 22 | Current Sector: 0
Dest Coordinates: (0,0,4)
Dest ID: 64 | Destination Sector: 0
wirelessCapability: 0
outport_dirn: West
##########################################################################
Current Coordinates: (2,1,1)
Current ID: 22 | Current Sector: 0
Dest Coordinates: (0,3,4)
Dest ID: 76 | Destination Sector: 0
wirelessCapability: 0
outport_dirn: West
##########################################################################
Current Coordinates: (3,3,2)
Current ID: 47 | Current Sector: 0
Dest Coordinates: (3,2,1)
Dest ID: 27 | Destination Sector: 0
wirelessCapability: 0
outport_dirn: South
##########################################################################
Current Coordinates: (2,3,1)
Current ID: 30 | Current Sector: 0
Dest Coordinates: (1,3,3)
Dest ID: 61 | Destination Sector: 0
wirelessCapability: 1
outport_dirn: West
##########################################################################
Current Coordinates: (1,0,2)
Current ID: 33 | Current Sector: 0
Dest Coordinates: (1,0,1)
Dest ID: 17 | Destination Sector: 0
wirelessCapability: 0
outport_dirn: Down
##########################################################################
Current Coordinates: (2,2,2)
Current ID: 42 | Current Sector: 0
Dest Coordinates: (2,3,4)
Dest ID: 78 | Destination Sector: 0
wirelessCapability: 1
outport_dirn: North
##########################################################################
Current Coordinates: (2,2,2)
Current ID: 42 | Current Sector: 0
Dest Coordinates: (3,0,4)
Dest ID: 67 | Destination Sector: 0
wirelessCapability: 1
outport_dirn: East
##########################################################################
Current Coordinates: (2,2,2)
Current ID: 42 | Current Sector: 0
Dest Coordinates: (2,1,4)
Dest ID: 70 | Destination Sector: 0
wirelessCapability: 1
outport_dirn: South
##########################################################################
Current Coordinates: (2,2,2)
Current ID: 42 | Current Sector: 0
Dest Coordinates: (2,1,3)
Dest ID: 54 | Destination Sector: 0
wirelessCapability: 1
outport_dirn: South
##########################################################################
Current Coordinates: (1,0,3)
Current ID: 49 | Current Sector: 0
Dest Coordinates: (1,0,2)
Dest ID: 33 | Destination Sector: 0
wirelessCapability: 1
outport_dirn: Down
##########################################################################
Current Coordinates: (0,1,3)
Current ID: 52 | Current Sector: 0
Dest Coordinates: (0,1,2)
Dest ID: 36 | Destination Sector: 0
wirelessCapability: 1
outport_dirn: Down
##########################################################################
Current Coordinates: (0,1,3)
Current ID: 52 | Current Sector: 0
Dest Coordinates: (0,1,2)
Dest ID: 36 | Destination Sector: 0
wirelessCapability: 1
outport_dirn: Down
##########################################################################
Current Coordinates: (2,1,4)
Current ID: 70 | Current Sector: 0
Dest Coordinates: (3,3,1)
Dest ID: 31 | Destination Sector: 0
wirelessCapability: 1
outport_dirn: East
##########################################################################
Current Coordinates: (2,3,4)
Current ID: 78 | Current Sector: 0
Dest Coordinates: (3,2,4)
Dest ID: 75 | Destination Sector: 0
wirelessCapability: 0
outport_dirn: East
##########################################################################
Current Coordinates: (1,3,4)
Current ID: 77 | Current Sector: 0
Dest Coordinates: (1,0,1)
Dest ID: 17 | Destination Sector: 0
wirelessCapability: 0
outport_dirn: South
##########################################################################
Current Coordinates: (1,3,4)
Current ID: 77 | Current Sector: 0
Dest Coordinates: (1,1,3)
Dest ID: 53 | Destination Sector: 0
wirelessCapability: 0
outport_dirn: South
##########################################################################
Current Coordinates: (2,1,4)
Current ID: 70 | Current Sector: 0
Dest Coordinates: (3,1,3)
Dest ID: 55 | Destination Sector: 0
wirelessCapability: 1
outport_dirn: East
##########################################################################
Current Coordinates: (0,1,3)
Current ID: 52 | Current Sector: 0
Dest Coordinates: (2,3,2)
Dest ID: 46 | Destination Sector: 0
wirelessCapability: 1
outport_dirn: East
##########################################################################
Current Coordinates: (2,2,2)
Current ID: 42 | Current Sector: 0
Dest Coordinates: (3,1,3)
Dest ID: 55 | Destination Sector: 0
wirelessCapability: 1
outport_dirn: East
##########################################################################
Current Coordinates: (2,1,2)
Current ID: 38 | Current Sector: 0
Dest Coordinates: (1,1,3)
Dest ID: 53 | Destination Sector: 0
wirelessCapability: 0
outport_dirn: West
##########################################################################
Current Coordinates: (1,1,2)
Current ID: 37 | Current Sector: 0
Dest Coordinates: (1,0,3)
Dest ID: 49 | Destination Sector: 0
wirelessCapability: 0
outport_dirn: South
##########################################################################
Current Coordinates: (1,0,2)
Current ID: 33 | Current Sector: 0
Dest Coordinates: (1,3,4)
Dest ID: 77 | Destination Sector: 0
wirelessCapability: 0
outport_dirn: North
##########################################################################
Current Coordinates: (2,0,2)
Current ID: 34 | Current Sector: 0
Dest Coordinates: (0,2,3)
Dest ID: 56 | Destination Sector: 0
wirelessCapability: 0
outport_dirn: West
##########################################################################
Current Coordinates: (3,3,1)
Current ID: 31 | Current Sector: 0
Dest Coordinates: (1,1,1)
Dest ID: 21 | Destination Sector: 0
wirelessCapability: 0
outport_dirn: West
##########################################################################
Current Coordinates: (2,3,1)
Current ID: 30 | Current Sector: 0
Dest Coordinates: (1,3,1)
Dest ID: 29 | Destination Sector: 0
wirelessCapability: 1
outport_dirn: West
##########################################################################
Current Coordinates: (1,0,1)
Current ID: 17 | Current Sector: 0
Dest Coordinates: (2,1,2)
Dest ID: 38 | Destination Sector: 0
wirelessCapability: 1
outport_dirn: Transmit_42
##########################################################################
Current Coordinates: (3,3,2)
Current ID: 47 | Current Sector: 0
Dest Coordinates: (3,3,3)
Dest ID: 63 | Destination Sector: 0
wirelessCapability: 0
outport_dirn: Up
##########################################################################
Current Coordinates: (3,3,2)
Current ID: 47 | Current Sector: 0
Dest Coordinates: (3,0,1)
Dest ID: 19 | Destination Sector: 0
wirelessCapability: 0
outport_dirn: South
##########################################################################
Current Coordinates: (0,3,4)
Current ID: 76 | Current Sector: 0
Dest Coordinates: (0,2,2)
Dest ID: 40 | Destination Sector: 0
wirelessCapability: 0
outport_dirn: South
##########################################################################
Current Coordinates: (3,1,1)
Current ID: 23 | Current Sector: 0
Dest Coordinates: (0,3,1)
Dest ID: 28 | Destination Sector: 0
wirelessCapability: 0
outport_dirn: West
##########################################################################
Current Coordinates: (0,2,2)
Current ID: 40 | Current Sector: 0
Dest Coordinates: (0,2,4)
Dest ID: 72 | Destination Sector: 0
wirelessCapability: 0
outport_dirn: Up
##########################################################################
Current Coordinates: (3,1,2)
Current ID: 39 | Current Sector: 0
Dest Coordinates: (3,3,3)
Dest ID: 63 | Destination Sector: 0
wirelessCapability: 0
outport_dirn: North
##########################################################################
Current Coordinates: (3,1,2)
Current ID: 39 | Current Sector: 0
Dest Coordinates: (3,1,3)
Dest ID: 55 | Destination Sector: 0
wirelessCapability: 0
outport_dirn: Up
##########################################################################
Current Coordinates: (2,1,3)
Current ID: 54 | Current Sector: 0
Dest Coordinates: (3,3,2)
Dest ID: 47 | Destination Sector: 0
wirelessCapability: 0
outport_dirn: East
##########################################################################
Current Coordinates: (3,2,3)
Current ID: 59 | Current Sector: 0
Dest Coordinates: (3,1,2)
Dest ID: 39 | Destination Sector: 0
wirelessCapability: 0
outport_dirn: South
##########################################################################
Current Coordinates: (1,1,4)
Current ID: 69 | Current Sector: 0
Dest Coordinates: (2,2,1)
Dest ID: 26 | Destination Sector: 0
wirelessCapability: 0
outport_dirn: East
##########################################################################
Current Coordinates: (1,1,4)
Current ID: 69 | Current Sector: 0
Dest Coordinates: (1,0,3)
Dest ID: 49 | Destination Sector: 0
wirelessCapability: 0
outport_dirn: South
##########################################################################
Current Coordinates: (3,0,4)
Current ID: 67 | Current Sector: 0
Dest Coordinates: (3,3,4)
Dest ID: 79 | Destination Sector: 0
wirelessCapability: 0
outport_dirn: North
##########################################################################
Current Coordinates: (2,0,4)
Current ID: 66 | Current Sector: 0
Dest Coordinates: (1,3,1)
Dest ID: 29 | Destination Sector: 0
wirelessCapability: 0
outport_dirn: West
##########################################################################
Current Coordinates: (3,0,3)
Current ID: 51 | Current Sector: 0
Dest Coordinates: (3,1,2)
Dest ID: 39 | Destination Sector: 0
wirelessCapability: 0
outport_dirn: North
##########################################################################
Current Coordinates: (1,2,4)
Current ID: 73 | Current Sector: 0
Dest Coordinates: (1,3,2)
Dest ID: 45 | Destination Sector: 0
wirelessCapability: 0
outport_dirn: North
##########################################################################
Current Coordinates: (1,2,4)
Current ID: 73 | Current Sector: 0
Dest Coordinates: (3,0,4)
Dest ID: 67 | Destination Sector: 0
wirelessCapability: 0
outport_dirn: East
##########################################################################
Current Coordinates: (1,1,3)
Current ID: 53 | Current Sector: 0
Dest Coordinates: (2,1,3)
Dest ID: 54 | Destination Sector: 0
wirelessCapability: 0
outport_dirn: East
##########################################################################
Current Coordinates: (1,1,3)
Current ID: 53 | Current Sector: 0
Dest Coordinates: (1,1,4)
Dest ID: 69 | Destination Sector: 0
wirelessCapability: 0
outport_dirn: Up
##########################################################################
Current Coordinates: (2,2,4)
Current ID: 74 | Current Sector: 0
Dest Coordinates: (3,1,1)
Dest ID: 23 | Destination Sector: 0
wirelessCapability: 0
outport_dirn: East
##########################################################################
Current Coordinates: (2,2,4)
Current ID: 74 | Current Sector: 0
Dest Coordinates: (2,0,4)
Dest ID: 66 | Destination Sector: 0
wirelessCapability: 0
outport_dirn: South
##########################################################################
Current Coordinates: (1,2,2)
Current ID: 41 | Current Sector: 0
Dest Coordinates: (1,2,3)
Dest ID: 57 | Destination Sector: 0
wirelessCapability: 0
outport_dirn: Up
##########################################################################
Current Coordinates: (1,2,2)
Current ID: 41 | Current Sector: 0
Dest Coordinates: (1,2,3)
Dest ID: 57 | Destination Sector: 0
wirelessCapability: 0
outport_dirn: Up
##########################################################################
Current Coordinates: (1,3,2)
Current ID: 45 | Current Sector: 0
Dest Coordinates: (2,2,3)
Dest ID: 58 | Destination Sector: 0
wirelessCapability: 0
outport_dirn: East
##########################################################################
Current Coordinates: (2,2,3)
Current ID: 58 | Current Sector: 0
Dest Coordinates: (3,1,2)
Dest ID: 39 | Destination Sector: 0
wirelessCapability: 0
outport_dirn: East
##########################################################################
Current Coordinates: (2,2,3)
Current ID: 58 | Current Sector: 0
Dest Coordinates: (2,2,1)
Dest ID: 26 | Destination Sector: 0
wirelessCapability: 0
outport_dirn: Down
##########################################################################
Current Coordinates: (2,3,3)
Current ID: 62 | Current Sector: 0
Dest Coordinates: (2,3,4)
Dest ID: 78 | Destination Sector: 0
wirelessCapability: 0
outport_dirn: Up
##########################################################################
Current Coordinates: (1,2,3)
Current ID: 57 | Current Sector: 0
Dest Coordinates: (1,1,4)
Dest ID: 69 | Destination Sector: 0
wirelessCapability: 0
outport_dirn: South
##########################################################################
Current Coordinates: (2,0,3)
Current ID: 50 | Current Sector: 0
Dest Coordinates: (2,2,2)
Dest ID: 42 | Destination Sector: 0
wirelessCapability: 0
outport_dirn: North
##########################################################################
Current Coordinates: (2,0,3)
Current ID: 50 | Current Sector: 0
Dest Coordinates: (2,0,1)
Dest ID: 18 | Destination Sector: 0
wirelessCapability: 0
outport_dirn: Down
##########################################################################
Current Coordinates: (0,3,1)
Current ID: 28 | Current Sector: 0
Dest Coordinates: (2,0,4)
Dest ID: 66 | Destination Sector: 0
wirelessCapability: 0
outport_dirn: East
##########################################################################
Current Coordinates: (0,3,1)
Current ID: 28 | Current Sector: 0
Dest Coordinates: (0,1,2)
Dest ID: 36 | Destination Sector: 0
wirelessCapability: 0
outport_dirn: South
##########################################################################
Current Coordinates: (2,2,1)
Current ID: 26 | Current Sector: 0
Dest Coordinates: (3,1,2)
Dest ID: 39 | Destination Sector: 0
wirelessCapability: 0
outport_dirn: East
##########################################################################
Current Coordinates: (1,2,1)
Current ID: 25 | Current Sector: 0
Dest Coordinates: (2,1,3)
Dest ID: 54 | Destination Sector: 0
wirelessCapability: 0
outport_dirn: East
##########################################################################
Current Coordinates: (2,1,1)
Current ID: 22 | Current Sector: 0
Dest Coordinates: (1,0,4)
Dest ID: 65 | Destination Sector: 0
wirelessCapability: 0
outport_dirn: West
##########################################################################
Current Coordinates: (3,0,2)
Current ID: 35 | Current Sector: 0
Dest Coordinates: (3,2,2)
Dest ID: 43 | Destination Sector: 0
wirelessCapability: 0
outport_dirn: North
##########################################################################
Current Coordinates: (3,0,2)
Current ID: 35 | Current Sector: 0
Dest Coordinates: (3,2,2)
Dest ID: 43 | Destination Sector: 0
wirelessCapability: 0
outport_dirn: North
##########################################################################
Current Coordinates: (0,1,2)
Current ID: 36 | Current Sector: 0
Dest Coordinates: (3,2,4)
Dest ID: 75 | Destination Sector: 0
wirelessCapability: 0
outport_dirn: East
##########################################################################
Current Coordinates: (0,0,4)
Current ID: 64 | Current Sector: 0
Dest Coordinates: (3,3,1)
Dest ID: 31 | Destination Sector: 0
wirelessCapability: 0
outport_dirn: East
##########################################################################
Current Coordinates: (3,1,4)
Current ID: 71 | Current Sector: 0
Dest Coordinates: (1,1,1)
Dest ID: 21 | Destination Sector: 0
wirelessCapability: 0
outport_dirn: West
##########################################################################
Current Coordinates: (3,1,4)
Current ID: 71 | Current Sector: 0
Dest Coordinates: (3,3,1)
Dest ID: 31 | Destination Sector: 0
wirelessCapability: 0
outport_dirn: North
##########################################################################
Current Coordinates: (3,2,4)
Current ID: 75 | Current Sector: 0
Dest Coordinates: (0,1,4)
Dest ID: 68 | Destination Sector: 0
wirelessCapability: 0
outport_dirn: West
##########################################################################
Current Coordinates: (3,2,4)
Current ID: 75 | Current Sector: 0
Dest Coordinates: (3,0,3)
Dest ID: 51 | Destination Sector: 0
wirelessCapability: 0
outport_dirn: South
##########################################################################
Current Coordinates: (0,0,2)
Current ID: 32 | Current Sector: 0
Dest Coordinates: (1,2,2)
Dest ID: 41 | Destination Sector: 0
wirelessCapability: 0
outport_dirn: East
##########################################################################
Current Coordinates: (0,3,2)
Current ID: 44 | Current Sector: 0
Dest Coordinates: (0,1,2)
Dest ID: 36 | Destination Sector: 0
wirelessCapability: 0
outport_dirn: South
##########################################################################
Current Coordinates: (0,3,2)
Current ID: 44 | Current Sector: 0
Dest Coordinates: (0,1,1)
Dest ID: 20 | Destination Sector: 0
wirelessCapability: 0
outport_dirn: South
##########################################################################
Current Coordinates: (0,2,3)
Current ID: 56 | Current Sector: 0
Dest Coordinates: (0,0,3)
Dest ID: 48 | Destination Sector: 0
wirelessCapability: 0
outport_dirn: South
##########################################################################
Current Coordinates: (0,3,3)
Current ID: 60 | Current Sector: 0
Dest Coordinates: (1,3,2)
Dest ID: 45 | Destination Sector: 0
wirelessCapability: 0
outport_dirn: East
##########################################################################
Current Coordinates: (3,0,1)
Current ID: 19 | Current Sector: 0
Dest Coordinates: (1,3,4)
Dest ID: 77 | Destination Sector: 0
wirelessCapability: 0
outport_dirn: West
##########################################################################
Current Coordinates: (3,0,1)
Current ID: 19 | Current Sector: 0
Dest Coordinates: (3,0,3)
Dest ID: 51 | Destination Sector: 0
wirelessCapability: 0
outport_dirn: Up
##########################################################################
Current Coordinates: (1,1,1)
Current ID: 21 | Current Sector: 0
Dest Coordinates: (3,3,3)
Dest ID: 63 | Destination Sector: 0
wirelessCapability: 0
outport_dirn: East
##########################################################################
Current Coordinates: (1,1,1)
Current ID: 21 | Current Sector: 0
Dest Coordinates: (0,0,4)
Dest ID: 64 | Destination Sector: 0
wirelessCapability: 0
outport_dirn: West
##########################################################################
Current Coordinates: (3,3,3)
Current ID: 63 | Current Sector: 0
Dest Coordinates: (1,2,3)
Dest ID: 57 | Destination Sector: 0
wirelessCapability: 0
outport_dirn: West
##########################################################################
Current Coordinates: (3,3,4)
Current ID: 79 | Current Sector: 0
Dest Coordinates: (2,2,3)
Dest ID: 58 | Destination Sector: 0
wirelessCapability: 0
outport_dirn: West
##########################################################################
Current Coordinates: (1,1,1)
Current ID: 21 | Current Sector: 0
Dest Coordinates: (0,3,4)
Dest ID: 76 | Destination Sector: 0
wirelessCapability: 0
outport_dirn: West
##########################################################################
Current Coordinates: (2,2,1)
Current ID: 26 | Current Sector: 0
Dest Coordinates: (2,3,3)
Dest ID: 62 | Destination Sector: 0
wirelessCapability: 0
outport_dirn: North
##########################################################################
Current Coordinates: (1,2,3)
Current ID: 57 | Current Sector: 0
Dest Coordinates: (1,1,2)
Dest ID: 37 | Destination Sector: 0
wirelessCapability: 0
outport_dirn: South
##########################################################################
Current Coordinates: (1,2,4)
Current ID: 73 | Current Sector: 0
Dest Coordinates: (1,2,1)
Dest ID: 25 | Destination Sector: 0
wirelessCapability: 0
outport_dirn: Down
##########################################################################
Current Coordinates: (1,3,3)
Current ID: 61 | Current Sector: 0
Dest Coordinates: (0,0,1)
Dest ID: 16 | Destination Sector: 0
wirelessCapability: 1
outport_dirn: West
##########################################################################
Current Coordinates: (3,2,2)
Current ID: 43 | Current Sector: 0
Dest Coordinates: (3,2,1)
Dest ID: 27 | Destination Sector: 0
wirelessCapability: 0
outport_dirn: Down
##########################################################################
Current Coordinates: (2,2,2)
Current ID: 42 | Current Sector: 0
Dest Coordinates: (3,1,1)
Dest ID: 23 | Destination Sector: 0
wirelessCapability: 1
outport_dirn: East
##########################################################################
Current Coordinates: (2,2,2)
Current ID: 42 | Current Sector: 0
Dest Coordinates: (2,1,4)
Dest ID: 70 | Destination Sector: 0
wirelessCapability: 1
outport_dirn: South
##########################################################################
Current Coordinates: (1,0,3)
Current ID: 49 | Current Sector: 0
Dest Coordinates: (1,0,4)
Dest ID: 65 | Destination Sector: 0
wirelessCapability: 1
outport_dirn: Up
##########################################################################
Current Coordinates: (1,0,3)
Current ID: 49 | Current Sector: 0
Dest Coordinates: (1,0,2)
Dest ID: 33 | Destination Sector: 0
wirelessCapability: 1
outport_dirn: Down
##########################################################################
Current Coordinates: (2,1,4)
Current ID: 70 | Current Sector: 0
Dest Coordinates: (2,1,1)
Dest ID: 22 | Destination Sector: 0
wirelessCapability: 1
outport_dirn: Down
##########################################################################
Current Coordinates: (2,1,4)
Current ID: 70 | Current Sector: 0
Dest Coordinates: (0,0,4)
Dest ID: 64 | Destination Sector: 0
wirelessCapability: 1
outport_dirn: West
##########################################################################
Current Coordinates: (2,1,4)
Current ID: 70 | Current Sector: 0
Dest Coordinates: (2,1,2)
Dest ID: 38 | Destination Sector: 0
wirelessCapability: 1
outport_dirn: Down
##########################################################################
Current Coordinates: (2,3,4)
Current ID: 78 | Current Sector: 0
Dest Coordinates: (2,2,3)
Dest ID: 58 | Destination Sector: 0
wirelessCapability: 0
outport_dirn: South
##########################################################################
Current Coordinates: (1,3,4)
Current ID: 77 | Current Sector: 0
Dest Coordinates: (2,3,1)
Dest ID: 30 | Destination Sector: 0
wirelessCapability: 0
outport_dirn: East
##########################################################################
Current Coordinates: (1,3,4)
Current ID: 77 | Current Sector: 0
Dest Coordinates: (1,3,2)
Dest ID: 45 | Destination Sector: 0
wirelessCapability: 0
outport_dirn: Down
##########################################################################
Current Coordinates: (1,0,3)
Current ID: 49 | Current Sector: 0
Dest Coordinates: (3,1,1)
Dest ID: 23 | Destination Sector: 0
wirelessCapability: 1
outport_dirn: East
##########################################################################
Current Coordinates: (2,2,2)
Current ID: 42 | Current Sector: 0
Dest Coordinates: (2,1,2)
Dest ID: 38 | Destination Sector: 0
wirelessCapability: 1
outport_dirn: South
##########################################################################
Current Coordinates: (1,1,2)
Current ID: 37 | Current Sector: 0
Dest Coordinates: (1,3,4)
Dest ID: 77 | Destination Sector: 0
wirelessCapability: 0
outport_dirn: North
##########################################################################
Current Coordinates: (1,1,2)
Current ID: 37 | Current Sector: 0
Dest Coordinates: (3,2,4)
Dest ID: 75 | Destination Sector: 0
wirelessCapability: 0
outport_dirn: East
##########################################################################
Current Coordinates: (1,1,2)
Current ID: 37 | Current Sector: 0
Dest Coordinates: (1,1,3)
Dest ID: 53 | Destination Sector: 0
wirelessCapability: 0
outport_dirn: Up
##########################################################################
Current Coordinates: (1,0,2)
Current ID: 33 | Current Sector: 0
Dest Coordinates: (2,0,4)
Dest ID: 66 | Destination Sector: 0
wirelessCapability: 0
outport_dirn: East
##########################################################################
Current Coordinates: (1,0,2)
Current ID: 33 | Current Sector: 0
Dest Coordinates: (1,2,2)
Dest ID: 41 | Destination Sector: 0
wirelessCapability: 0
outport_dirn: North
##########################################################################
Current Coordinates: (1,0,2)
Current ID: 33 | Current Sector: 0
Dest Coordinates: (0,2,3)
Dest ID: 56 | Destination Sector: 0
wirelessCapability: 0
outport_dirn: West
##########################################################################
Current Coordinates: (1,0,2)
Current ID: 33 | Current Sector: 0
Dest Coordinates: (1,0,3)
Dest ID: 49 | Destination Sector: 0
wirelessCapability: 0
outport_dirn: Up
##########################################################################
Current Coordinates: (1,0,1)
Current ID: 17 | Current Sector: 0
Dest Coordinates: (2,3,1)
Dest ID: 30 | Destination Sector: 0
wirelessCapability: 1
outport_dirn: Transmit_30
##########################################################################
Current Coordinates: (2,3,2)
Current ID: 46 | Current Sector: 0
Dest Coordinates: (2,2,3)
Dest ID: 58 | Destination Sector: 0
wirelessCapability: 0
outport_dirn: South
##########################################################################
Current Coordinates: (3,2,2)
Current ID: 43 | Current Sector: 0
Dest Coordinates: (0,0,2)
Dest ID: 32 | Destination Sector: 0
wirelessCapability: 0
outport_dirn: West
##########################################################################
Current Coordinates: (3,2,2)
Current ID: 43 | Current Sector: 0
Dest Coordinates: (3,3,3)
Dest ID: 63 | Destination Sector: 0
wirelessCapability: 0
outport_dirn: North
##########################################################################
Current Coordinates: (3,2,2)
Current ID: 43 | Current Sector: 0
Dest Coordinates: (3,0,1)
Dest ID: 19 | Destination Sector: 0
wirelessCapability: 0
outport_dirn: South
##########################################################################
Current Coordinates: (3,2,1)
Current ID: 27 | Current Sector: 0
Dest Coordinates: (3,1,2)
Dest ID: 39 | Destination Sector: 0
wirelessCapability: 0
outport_dirn: South
##########################################################################
Current Coordinates: (3,1,1)
Current ID: 23 | Current Sector: 0
Dest Coordinates: (2,2,2)
Dest ID: 42 | Destination Sector: 0
wirelessCapability: 0
outport_dirn: West
##########################################################################
Current Coordinates: (0,2,2)
Current ID: 40 | Current Sector: 0
Dest Coordinates: (0,1,2)
Dest ID: 36 | Destination Sector: 0
wirelessCapability: 0
outport_dirn: South
##########################################################################
Current Coordinates: (3,0,4)
Current ID: 67 | Current Sector: 0
Dest Coordinates: (3,3,4)
Dest ID: 79 | Destination Sector: 0
wirelessCapability: 0
outport_dirn: North
##########################################################################
Current Coordinates: (1,2,4)
Current ID: 73 | Current Sector: 0
Dest Coordinates: (3,3,1)
Dest ID: 31 | Destination Sector: 0
wirelessCapability: 0
outport_dirn: East
##########################################################################
Current Coordinates: (1,2,4)
Current ID: 73 | Current Sector: 0
Dest Coordinates: (1,1,3)
Dest ID: 53 | Destination Sector: 0
wirelessCapability: 0
outport_dirn: South
##########################################################################
Current Coordinates: (1,1,3)
Current ID: 53 | Current Sector: 0
Dest Coordinates: (1,1,4)
Dest ID: 69 | Destination Sector: 0
wirelessCapability: 0
outport_dirn: Up
##########################################################################
Current Coordinates: (2,2,4)
Current ID: 74 | Current Sector: 0
Dest Coordinates: (3,0,4)
Dest ID: 67 | Destination Sector: 0
wirelessCapability: 0
outport_dirn: East
##########################################################################
Current Coordinates: (2,2,4)
Current ID: 74 | Current Sector: 0
Dest Coordinates: (0,1,4)
Dest ID: 68 | Destination Sector: 0
wirelessCapability: 0
outport_dirn: West
##########################################################################
Current Coordinates: (1,2,2)
Current ID: 41 | Current Sector: 0
Dest Coordinates: (1,0,1)
Dest ID: 17 | Destination Sector: 0
wirelessCapability: 0
outport_dirn: South
##########################################################################
Current Coordinates: (3,2,3)
Current ID: 59 | Current Sector: 0
Dest Coordinates: (3,1,2)
Dest ID: 39 | Destination Sector: 0
wirelessCapability: 0
outport_dirn: South
##########################################################################
Current Coordinates: (2,3,3)
Current ID: 62 | Current Sector: 0
Dest Coordinates: (1,2,3)
Dest ID: 57 | Destination Sector: 0
wirelessCapability: 0
outport_dirn: West
##########################################################################
Current Coordinates: (1,2,3)
Current ID: 57 | Current Sector: 0
Dest Coordinates: (3,0,4)
Dest ID: 67 | Destination Sector: 0
wirelessCapability: 0
outport_dirn: East
##########################################################################
Current Coordinates: (2,1,3)
Current ID: 54 | Current Sector: 0
Dest Coordinates: (2,2,2)
Dest ID: 42 | Destination Sector: 0
wirelessCapability: 0
outport_dirn: North
##########################################################################
Current Coordinates: (2,0,3)
Current ID: 50 | Current Sector: 0
Dest Coordinates: (2,0,2)
Dest ID: 34 | Destination Sector: 0
wirelessCapability: 0
outport_dirn: Down
##########################################################################
Current Coordinates: (1,3,1)
Current ID: 29 | Current Sector: 0
Dest Coordinates: (2,0,4)
Dest ID: 66 | Destination Sector: 0
wirelessCapability: 0
outport_dirn: East
##########################################################################
Current Coordinates: (0,2,1)
Current ID: 24 | Current Sector: 0
Dest Coordinates: (0,1,2)
Dest ID: 36 | Destination Sector: 0
wirelessCapability: 0
outport_dirn: South
##########################################################################
Current Coordinates: (0,3,1)
Current ID: 28 | Current Sector: 0
Dest Coordinates: (3,1,3)
Dest ID: 55 | Destination Sector: 0
wirelessCapability: 0
outport_dirn: East
##########################################################################
Current Coordinates: (2,2,1)
Current ID: 26 | Current Sector: 0
Dest Coordinates: (0,3,1)
Dest ID: 28 | Destination Sector: 0
wirelessCapability: 0
outport_dirn: West
##########################################################################
Current Coordinates: (2,2,1)
Current ID: 26 | Current Sector: 0
Dest Coordinates: (2,1,3)
Dest ID: 54 | Destination Sector: 0
wirelessCapability: 0
outport_dirn: South
##########################################################################
Current Coordinates: (1,2,1)
Current ID: 25 | Current Sector: 0
Dest Coordinates: (1,0,2)
Dest ID: 33 | Destination Sector: 0
wirelessCapability: 0
outport_dirn: South
##########################################################################
Current Coordinates: (2,1,1)
Current ID: 22 | Current Sector: 0
Dest Coordinates: (3,3,3)
Dest ID: 63 | Destination Sector: 0
wirelessCapability: 0
outport_dirn: East
##########################################################################
Current Coordinates: (2,1,1)
Current ID: 22 | Current Sector: 0
Dest Coordinates: (0,3,1)
Dest ID: 28 | Destination Sector: 0
wirelessCapability: 0
outport_dirn: West
##########################################################################
Current Coordinates: (3,0,2)
Current ID: 35 | Current Sector: 0
Dest Coordinates: (3,0,3)
Dest ID: 51 | Destination Sector: 0
wirelessCapability: 0
outport_dirn: Up
##########################################################################
Current Coordinates: (3,1,2)
Current ID: 39 | Current Sector: 0
Dest Coordinates: (3,2,2)
Dest ID: 43 | Destination Sector: 0
wirelessCapability: 0
outport_dirn: North
##########################################################################
Current Coordinates: (3,1,4)
Current ID: 71 | Current Sector: 0
Dest Coordinates: (3,3,4)
Dest ID: 79 | Destination Sector: 0
wirelessCapability: 0
outport_dirn: North
##########################################################################
Current Coordinates: (3,1,4)
Current ID: 71 | Current Sector: 0
Dest Coordinates: (3,0,3)
Dest ID: 51 | Destination Sector: 0
wirelessCapability: 0
outport_dirn: South
##########################################################################
Current Coordinates: (3,2,4)
Current ID: 75 | Current Sector: 0
Dest Coordinates: (3,3,3)
Dest ID: 63 | Destination Sector: 0
wirelessCapability: 0
outport_dirn: North
##########################################################################
Current Coordinates: (3,2,4)
Current ID: 75 | Current Sector: 0
Dest Coordinates: (3,3,1)
Dest ID: 31 | Destination Sector: 0
wirelessCapability: 0
outport_dirn: North
##########################################################################
Current Coordinates: (3,2,4)
Current ID: 75 | Current Sector: 0
Dest Coordinates: (3,1,1)
Dest ID: 23 | Destination Sector: 0
wirelessCapability: 0
outport_dirn: South
##########################################################################
Current Coordinates: (0,0,1)
Current ID: 16 | Current Sector: 0
Dest Coordinates: (0,1,2)
Dest ID: 36 | Destination Sector: 0
wirelessCapability: 0
outport_dirn: North
##########################################################################
Current Coordinates: (0,3,2)
Current ID: 44 | Current Sector: 0
Dest Coordinates: (3,3,2)
Dest ID: 47 | Destination Sector: 0
wirelessCapability: 0
outport_dirn: East
##########################################################################
Current Coordinates: (1,1,1)
Current ID: 21 | Current Sector: 0
Dest Coordinates: (3,2,2)
Dest ID: 43 | Destination Sector: 0
wirelessCapability: 0
outport_dirn: East
##########################################################################
Current Coordinates: (1,1,1)
Current ID: 21 | Current Sector: 0
Dest Coordinates: (1,0,4)
Dest ID: 65 | Destination Sector: 0
wirelessCapability: 0
outport_dirn: South
##########################################################################
Current Coordinates: (3,3,4)
Current ID: 79 | Current Sector: 0
Dest Coordinates: (1,3,3)
Dest ID: 61 | Destination Sector: 0
wirelessCapability: 0
outport_dirn: West
##########################################################################
Current Coordinates: (3,3,4)
Current ID: 79 | Current Sector: 0
Dest Coordinates: (3,2,4)
Dest ID: 75 | Destination Sector: 0
wirelessCapability: 0
outport_dirn: South
##########################################################################
Current Coordinates: (2,0,4)
Current ID: 66 | Current Sector: 0
Dest Coordinates: (3,3,2)
Dest ID: 47 | Destination Sector: 0
wirelessCapability: 0
outport_dirn: East
##########################################################################
Current Coordinates: (0,2,3)
Current ID: 56 | Current Sector: 0
Dest Coordinates: (3,2,1)
Dest ID: 27 | Destination Sector: 0
wirelessCapability: 0
outport_dirn: East
##########################################################################
Current Coordinates: (0,2,3)
Current ID: 56 | Current Sector: 0
Dest Coordinates: (0,2,4)
Dest ID: 72 | Destination Sector: 0
wirelessCapability: 0
outport_dirn: Up
##########################################################################
Current Coordinates: (0,0,4)
Current ID: 64 | Current Sector: 0
Dest Coordinates: (2,1,1)
Dest ID: 22 | Destination Sector: 0
wirelessCapability: 0
outport_dirn: East
##########################################################################
Current Coordinates: (0,1,2)
Current ID: 36 | Current Sector: 0
Dest Coordinates: (3,0,3)
Dest ID: 51 | Destination Sector: 0
wirelessCapability: 0
outport_dirn: East
##########################################################################
Current Coordinates: (0,2,4)
Current ID: 72 | Current Sector: 0
Dest Coordinates: (3,1,1)
Dest ID: 23 | Destination Sector: 0
wirelessCapability: 0
outport_dirn: East
##########################################################################
Current Coordinates: (0,2,4)
Current ID: 72 | Current Sector: 0
Dest Coordinates: (0,2,2)
Dest ID: 40 | Destination Sector: 0
wirelessCapability: 0
outport_dirn: Down
##########################################################################
Current Coordinates: (1,0,4)
Current ID: 65 | Current Sector: 0
Dest Coordinates: (1,1,2)
Dest ID: 37 | Destination Sector: 0
wirelessCapability: 0
outport_dirn: North
##########################################################################
Current Coordinates: (1,0,4)
Current ID: 65 | Current Sector: 0
Dest Coordinates: (3,3,1)
Dest ID: 31 | Destination Sector: 0
wirelessCapability: 0
outport_dirn: East
##########################################################################
Current Coordinates: (1,0,4)
Current ID: 65 | Current Sector: 0
Dest Coordinates: (1,3,1)
Dest ID: 29 | Destination Sector: 0
wirelessCapability: 0
outport_dirn: North
##########################################################################
Current Coordinates: (1,0,4)
Current ID: 65 | Current Sector: 0
Dest Coordinates: (1,0,3)
Dest ID: 49 | Destination Sector: 0
wirelessCapability: 0
outport_dirn: Down
##########################################################################
Current Coordinates: (0,1,1)
Current ID: 20 | Current Sector: 0
Dest Coordinates: (1,2,1)
Dest ID: 25 | Destination Sector: 0
wirelessCapability: 0
outport_dirn: East
##########################################################################
Current Coordinates: (0,1,1)
Current ID: 20 | Current Sector: 0
Dest Coordinates: (0,0,4)
Dest ID: 64 | Destination Sector: 0
wirelessCapability: 0
outport_dirn: South
##########################################################################
Current Coordinates: (0,3,4)
Current ID: 76 | Current Sector: 0
Dest Coordinates: (1,1,4)
Dest ID: 69 | Destination Sector: 0
wirelessCapability: 0
outport_dirn: East
##########################################################################
Current Coordinates: (2,0,1)
Current ID: 18 | Current Sector: 0
Dest Coordinates: (0,1,2)
Dest ID: 36 | Destination Sector: 0
wirelessCapability: 0
outport_dirn: West
##########################################################################
Current Coordinates: (2,0,1)
Current ID: 18 | Current Sector: 0
Dest Coordinates: (1,3,4)
Dest ID: 77 | Destination Sector: 0
wirelessCapability: 0
outport_dirn: West
##########################################################################
Current Coordinates: (2,0,2)
Current ID: 34 | Current Sector: 0
Dest Coordinates: (1,1,3)
Dest ID: 53 | Destination Sector: 0
wirelessCapability: 0
outport_dirn: West
##########################################################################
Current Coordinates: (2,0,2)
Current ID: 34 | Current Sector: 0
Dest Coordinates: (2,0,1)
Dest ID: 18 | Destination Sector: 0
wirelessCapability: 0
outport_dirn: Down
##########################################################################
Current Coordinates: (3,0,3)
Current ID: 51 | Current Sector: 0
Dest Coordinates: (0,3,2)
Dest ID: 44 | Destination Sector: 0
wirelessCapability: 0
outport_dirn: West
##########################################################################
Current Coordinates: (0,1,1)
Current ID: 20 | Current Sector: 0
Dest Coordinates: (0,3,4)
Dest ID: 76 | Destination Sector: 0
wirelessCapability: 0
outport_dirn: North
##########################################################################
Current Coordinates: (3,1,2)
Current ID: 39 | Current Sector: 0
Dest Coordinates: (3,2,2)
Dest ID: 43 | Destination Sector: 0
wirelessCapability: 0
outport_dirn: North
##########################################################################
Current Coordinates: (0,2,2)
Current ID: 40 | Current Sector: 0
Dest Coordinates: (0,1,1)
Dest ID: 20 | Destination Sector: 0
wirelessCapability: 0
outport_dirn: South
##########################################################################
Current Coordinates: (1,1,3)
Current ID: 53 | Current Sector: 0
Dest Coordinates: (1,1,2)
Dest ID: 37 | Destination Sector: 0
wirelessCapability: 0
outport_dirn: Down
##########################################################################
Current Coordinates: (1,2,4)
Current ID: 73 | Current Sector: 0
Dest Coordinates: (1,0,1)
Dest ID: 17 | Destination Sector: 0
wirelessCapability: 0
outport_dirn: South
##########################################################################
Current Coordinates: (1,3,3)
Current ID: 61 | Current Sector: 0
Dest Coordinates: (1,3,2)
Dest ID: 45 | Destination Sector: 0
wirelessCapability: 1
outport_dirn: Down
[...]
Dest Coordinates: (0,1,2)
Dest ID: 36 | Destination Sector: 0
wirelessCapability: 0
outport_dirn: South
##########################################################################
Current Coordinates: (1,1,3)
Current ID: 53 | Current Sector: 0
Dest Coordinates: (1,1,4)
Dest ID: 69 | Destination Sector: 0
wirelessCapability: 0
outport_dirn: Up
##########################################################################
Current Coordinates: (0,3,1)
Current ID: 28 | Current Sector: 0
Dest Coordinates: (0,3,3)
Dest ID: 60 | Destination Sector: 0
wirelessCapability: 0
outport_dirn: Up
##########################################################################
Current Coordinates: (0,1,1)
Current ID: 20 | Current Sector: 0
Dest Coordinates: (2,3,4)
Dest ID: 78 | Destination Sector: 0
wirelessCapability: 0
outport_dirn: East
##########################################################################
Current Coordinates: (0,1,1)
Current ID: 20 | Current Sector: 0
Dest Coordinates: (0,3,2)
Dest ID: 44 | Destination Sector: 0
wirelessCapability: 0
outport_dirn: North
##########################################################################
Current Coordinates: (1,1,1)
Current ID: 21 | Current Sector: 0
Dest Coordinates: (2,3,4)
Dest ID: 78 | Destination Sector: 0
wirelessCapability: 0
outport_dirn: East
##########################################################################
Current Coordinates: (0,2,1)
Current ID: 24 | Current Sector: 0
Dest Coordinates: (3,3,3)
Dest ID: 63 | Destination Sector: 0
wirelessCapability: 0
outport_dirn: East
##########################################################################
Current Coordinates: (0,2,1)
Current ID: 24 | Current Sector: 0
Dest Coordinates: (0,3,2)
Dest ID: 44 | Destination Sector: 0
wirelessCapability: 0
outport_dirn: North
##########################################################################
Current Coordinates: (0,3,2)
Current ID: 44 | Current Sector: 0
Dest Coordinates: (0,3,3)
Dest ID: 60 | Destination Sector: 0
wirelessCapability: 0
outport_dirn: Up
##########################################################################
Current Coordinates: (2,1,1)
Current ID: 22 | Current Sector: 0
Dest Coordinates: (2,3,4)
Dest ID: 78 | Destination Sector: 0
wirelessCapability: 0
outport_dirn: North
##########################################################################
Current Coordinates: (0,3,1)
Current ID: 28 | Current Sector: 0
Dest Coordinates: (0,3,2)
Dest ID: 44 | Destination Sector: 0
wirelessCapability: 0
outport_dirn: Up
##########################################################################
Current Coordinates: (3,0,2)
Current ID: 35 | Current Sector: 0
Dest Coordinates: (2,3,3)
Dest ID: 62 | Destination Sector: 0
wirelessCapability: 0
outport_dirn: West
##########################################################################
Current Coordinates: (1,1,1)
Current ID: 21 | Current Sector: 0
Dest Coordinates: (0,0,3)
Dest ID: 48 | Destination Sector: 0
wirelessCapability: 0
outport_dirn: West
##########################################################################
Current Coordinates: (3,1,1)
Current ID: 23 | Current Sector: 0
Dest Coordinates: (3,1,4)
Dest ID: 71 | Destination Sector: 0
wirelessCapability: 0
outport_dirn: Up
##########################################################################
Current Coordinates: (0,1,1)
Current ID: 20 | Current Sector: 0
Dest Coordinates: (2,0,3)
Dest ID: 50 | Destination Sector: 0
wirelessCapability: 0
outport_dirn: East
##########################################################################
Current Coordinates: (0,1,1)
Current ID: 20 | Current Sector: 0
Dest Coordinates: (0,0,3)
Dest ID: 48 | Destination Sector: 0
wirelessCapability: 0
outport_dirn: South
##########################################################################
Current Coordinates: (3,1,2)
Current ID: 39 | Current Sector: 0
Dest Coordinates: (3,1,4)
Dest ID: 71 | Destination Sector: 0
wirelessCapability: 0
outport_dirn: Up
##########################################################################
Current Coordinates: (1,1,1)
Current ID: 21 | Current Sector: 0
Dest Coordinates: (2,0,3)
Dest ID: 50 | Destination Sector: 0
wirelessCapability: 0
outport_dirn: East
##########################################################################
Current Coordinates: (0,0,1)
Current ID: 16 | Current Sector: 0
Dest Coordinates: (0,0,3)
Dest ID: 48 | Destination Sector: 0
wirelessCapability: 0
outport_dirn: Up
##########################################################################
Current Coordinates: (2,1,1)
Current ID: 22 | Current Sector: 0
Dest Coordinates: (3,3,3)
Dest ID: 63 | Destination Sector: 0
wirelessCapability: 0
outport_dirn: East
##########################################################################
Current Coordinates: (1,1,1)
Current ID: 21 | Current Sector: 0
Dest Coordinates: (3,2,2)
Dest ID: 43 | Destination Sector: 0
wirelessCapability: 0
outport_dirn: East
##########################################################################
Current Coordinates: (0,0,2)
Current ID: 32 | Current Sector: 0
Dest Coordinates: (0,0,3)
Dest ID: 48 | Destination Sector: 0
wirelessCapability: 0
outport_dirn: Up
##########################################################################
Current Coordinates: (3,1,1)
Current ID: 23 | Current Sector: 0
Dest Coordinates: (2,2,4)
Dest ID: 74 | Destination Sector: 0
wirelessCapability: 0
outport_dirn: West
##########################################################################
Current Coordinates: (3,1,1)
Current ID: 23 | Current Sector: 0
Dest Coordinates: (3,3,3)
Dest ID: 63 | Destination Sector: 0
wirelessCapability: 0
outport_dirn: North
##########################################################################
Current Coordinates: (2,1,1)
Current ID: 22 | Current Sector: 0
Dest Coordinates: (3,2,2)
Dest ID: 43 | Destination Sector: 0
wirelessCapability: 0
outport_dirn: East
##########################################################################
Current Coordinates: (3,2,1)
Current ID: 27 | Current Sector: 0
Dest Coordinates: (3,3,3)
Dest ID: 63 | Destination Sector: 0
wirelessCapability: 0
outport_dirn: North
##########################################################################
Current Coordinates: (0,1,1)
Current ID: 20 | Current Sector: 0
Dest Coordinates: (1,1,3)
Dest ID: 53 | Destination Sector: 0
wirelessCapability: 0
outport_dirn: East
##########################################################################
Current Coordinates: (3,3,1)
Current ID: 31 | Current Sector: 0
Dest Coordinates: (3,3,3)
Dest ID: 63 | Destination Sector: 0
wirelessCapability: 0
outport_dirn: Up
##########################################################################
Current Coordinates: (3,1,1)
Current ID: 23 | Current Sector: 0
Dest Coordinates: (3,2,2)
Dest ID: 43 | Destination Sector: 0
wirelessCapability: 0
outport_dirn: North
##########################################################################
Current Coordinates: (1,1,1)
Current ID: 21 | Current Sector: 0
Dest Coordinates: (1,1,3)
Dest ID: 53 | Destination Sector: 0
wirelessCapability: 0
outport_dirn: Up
##########################################################################
Current Coordinates: (3,3,2)
Current ID: 47 | Current Sector: 0
Dest Coordinates: (3,3,3)
Dest ID: 63 | Destination Sector: 0
wirelessCapability: 0
outport_dirn: Up
##########################################################################
Current Coordinates: (3,2,1)
Current ID: 27 | Current Sector: 0
Dest Coordinates: (3,2,2)
Dest ID: 43 | Destination Sector: 0
wirelessCapability: 0
outport_dirn: Up
##########################################################################
Current Coordinates: (1,1,2)
Current ID: 37 | Current Sector: 0
Dest Coordinates: (1,1,3)
Dest ID: 53 | Destination Sector: 0
wirelessCapability: 0
outport_dirn: Up
##########################################################################
Current Coordinates: (3,1,1)
Current ID: 23 | Current Sector: 0
Dest Coordinates: (0,3,4)
Dest ID: 76 | Destination Sector: 0
wirelessCapability: 0
outport_dirn: West
##########################################################################
Current Coordinates: (1,1,1)
Current ID: 21 | Current Sector: 0
Dest Coordinates: (0,1,4)
Dest ID: 68 | Destination Sector: 0
wirelessCapability: 0
outport_dirn: West
##########################################################################
Current Coordinates: (0,1,1)
Current ID: 20 | Current Sector: 0
Dest Coordinates: (0,3,1)
Dest ID: 28 | Destination Sector: 0
wirelessCapability: 0
outport_dirn: North
##########################################################################
Current Coordinates: (1,2,1)
Current ID: 25 | Current Sector: 0
Dest Coordinates: (0,2,1)
Dest ID: 24 | Destination Sector: 0
wirelessCapability: 0
outport_dirn: West
##########################################################################
Current Coordinates: (0,2,1)
Current ID: 24 | Current Sector: 0
Dest Coordinates: (0,3,1)
Dest ID: 28 | Destination Sector: 0
wirelessCapability: 0
outport_dirn: North
##########################################################################
Current Coordinates: (2,1,1)
Current ID: 22 | Current Sector: 0
Dest Coordinates: (3,3,4)
Dest ID: 79 | Destination Sector: 0
wirelessCapability: 0
outport_dirn: East
##########################################################################
Current Coordinates: (3,1,1)
Current ID: 23 | Current Sector: 0
Dest Coordinates: (1,1,4)
Dest ID: 69 | Destination Sector: 0
wirelessCapability: 0
outport_dirn: West
##########################################################################
Current Coordinates: (1,2,1)
Current ID: 25 | Current Sector: 0
Dest Coordinates: (2,3,4)
Dest ID: 78 | Destination Sector: 0
wirelessCapability: 0
outport_dirn: East
##########################################################################
Current Coordinates: (3,1,1)
Current ID: 23 | Current Sector: 0
Dest Coordinates: (3,3,4)
Dest ID: 79 | Destination Sector: 0
wirelessCapability: 0
outport_dirn: North
##########################################################################
Current Coordinates: (3,2,1)
Current ID: 27 | Current Sector: 0
Dest Coordinates: (3,3,4)
Dest ID: 79 | Destination Sector: 0
wirelessCapability: 0
outport_dirn: North
##########################################################################
Current Coordinates: (3,3,1)
Current ID: 31 | Current Sector: 0
Dest Coordinates: (3,3,4)
Dest ID: 79 | Destination Sector: 0
wirelessCapability: 0
outport_dirn: Up
##########################################################################
Current Coordinates: (0,1,1)
Current ID: 20 | Current Sector: 0
Dest Coordinates: (2,2,3)
Dest ID: 58 | Destination Sector: 0
wirelessCapability: 0
outport_dirn: East
##########################################################################
Current Coordinates: (1,1,1)
Current ID: 21 | Current Sector: 0
Dest Coordinates: (2,2,3)
Dest ID: 58 | Destination Sector: 0
wirelessCapability: 0
outport_dirn: East
##########################################################################
Current Coordinates: (1,2,1)
Current ID: 25 | Current Sector: 0
Dest Coordinates: (0,0,2)
Dest ID: 32 | Destination Sector: 0
wirelessCapability: 0
outport_dirn: West
##########################################################################
Current Coordinates: (3,3,2)
Current ID: 47 | Current Sector: 0
Dest Coordinates: (3,3,4)
Dest ID: 79 | Destination Sector: 0
wirelessCapability: 0
outport_dirn: Up
##########################################################################
Current Coordinates: (0,2,1)
Current ID: 24 | Current Sector: 0
Dest Coordinates: (0,0,2)
Dest ID: 32 | Destination Sector: 0
wirelessCapability: 0
outport_dirn: South
##########################################################################
Current Coordinates: (3,3,3)
Current ID: 63 | Current Sector: 0
Dest Coordinates: (3,3,4)
Dest ID: 79 | Destination Sector: 0
wirelessCapability: 0
outport_dirn: Up
##########################################################################
Current Coordinates: (0,1,1)
Current ID: 20 | Current Sector: 0
Dest Coordinates: (0,3,4)
Dest ID: 76 | Destination Sector: 0
wirelessCapability: 0
outport_dirn: North
##########################################################################
Current Coordinates: (3,0,2)
Current ID: 35 | Current Sector: 0
Dest Coordinates: (1,0,2)
Dest ID: 33 | Destination Sector: 0
wirelessCapability: 0
outport_dirn: West
##########################################################################
Current Coordinates: (0,2,1)
Current ID: 24 | Current Sector: 0
Dest Coordinates: (0,3,4)
Dest ID: 76 | Destination Sector: 0
wirelessCapability: 0
outport_dirn: North
##########################################################################
Current Coordinates: (0,3,1)
Current ID: 28 | Current Sector: 0
Dest Coordinates: (0,3,4)
Dest ID: 76 | Destination Sector: 0
wirelessCapability: 0
outport_dirn: Up
##########################################################################
Current Coordinates: (1,2,1)
Current ID: 25 | Current Sector: 0
Dest Coordinates: (0,1,3)
Dest ID: 52 | Destination Sector: 0
wirelessCapability: 0
outport_dirn: West
##########################################################################
Current Coordinates: (0,3,2)
Current ID: 44 | Current Sector: 0
Dest Coordinates: (0,3,4)
Dest ID: 76 | Destination Sector: 0
wirelessCapability: 0
outport_dirn: Up
##########################################################################
Current Coordinates: (0,2,1)
Current ID: 24 | Current Sector: 0
Dest Coordinates: (0,1,3)
Dest ID: 52 | Destination Sector: 0
wirelessCapability: 0
outport_dirn: South
##########################################################################
Current Coordinates: (3,1,1)
Current ID: 23 | Current Sector: 0
Dest Coordinates: (0,3,2)
Dest ID: 44 | Destination Sector: 0
wirelessCapability: 0
outport_dirn: West
##########################################################################
Current Coordinates: (0,3,3)
Current ID: 60 | Current Sector: 0
Dest Coordinates: (0,3,4)
Dest ID: 76 | Destination Sector: 0
wirelessCapability: 0
outport_dirn: Up
##########################################################################
Current Coordinates: (1,2,1)
Current ID: 25 | Current Sector: 0
Dest Coordinates: (3,3,4)
Dest ID: 79 | Destination Sector: 0
wirelessCapability: 0
outport_dirn: East
##########################################################################
Current Coordinates: (1,1,1)
Current ID: 21 | Current Sector: 0
Dest Coordinates: (3,1,4)
Dest ID: 71 | Destination Sector: 0
wirelessCapability: 0
outport_dirn: East
##########################################################################
Current Coordinates: (2,1,1)
Current ID: 22 | Current Sector: 0
Dest Coordinates: (3,1,4)
Dest ID: 71 | Destination Sector: 0
wirelessCapability: 0
outport_dirn: East
##########################################################################
Current Coordinates: (1,1,1)
Current ID: 21 | Current Sector: 0
Dest Coordinates: (3,2,4)
Dest ID: 75 | Destination Sector: 0
wirelessCapability: 0
outport_dirn: East
##########################################################################
Current Coordinates: (3,1,1)
Current ID: 23 | Current Sector: 0
Dest Coordinates: (3,1,4)
Dest ID: 71 | Destination Sector: 0
wirelessCapability: 0
outport_dirn: Up
##########################################################################
Current Coordinates: (2,1,1)
Current ID: 22 | Current Sector: 0
Dest Coordinates: (3,2,4)
Dest ID: 75 | Destination Sector: 0
wirelessCapability: 0
outport_dirn: East
##########################################################################
Current Coordinates: (2,1,1)
Current ID: 22 | Current Sector: 0
Dest Coordinates: (3,3,3)
Dest ID: 63 | Destination Sector: 0
wirelessCapability: 0
outport_dirn: East
##########################################################################
Current Coordinates: (3,1,1)
Current ID: 23 | Current Sector: 0
Dest Coordinates: (3,2,4)
Dest ID: 75 | Destination Sector: 0
wirelessCapability: 0
outport_dirn: North
##########################################################################
Current Coordinates: (3,1,1)
Current ID: 23 | Current Sector: 0
Dest Coordinates: (3,3,3)
Dest ID: 63 | Destination Sector: 0
wirelessCapability: 0
outport_dirn: North
##########################################################################
Current Coordinates: (3,2,1)
Current ID: 27 | Current Sector: 0
Dest Coordinates: (3,2,4)
Dest ID: 75 | Destination Sector: 0
wirelessCapability: 0
outport_dirn: Up
##########################################################################
Current Coordinates: (3,2,2)
Current ID: 43 | Current Sector: 0
Dest Coordinates: (3,2,4)
Dest ID: 75 | Destination Sector: 0
wirelessCapability: 0
outport_dirn: Up
##########################################################################
Current Coordinates: (3,2,1)
Current ID: 27 | Current Sector: 0
Dest Coordinates: (3,3,3)
Dest ID: 63 | Destination Sector: 0
wirelessCapability: 0
outport_dirn: North
##########################################################################
Current Coordinates: (2,1,1)
Current ID: 22 | Current Sector: 0
Dest Coordinates: (1,2,2)
Dest ID: 41 | Destination Sector: 0
wirelessCapability: 0
outport_dirn: West
##########################################################################
Current Coordinates: (3,2,3)
Current ID: 59 | Current Sector: 0
Dest Coordinates: (3,2,4)
Dest ID: 75 | Destination Sector: 0
wirelessCapability: 0
outport_dirn: Up
##########################################################################
Current Coordinates: (3,3,1)
Current ID: 31 | Current Sector: 0
Dest Coordinates: (3,3,3)
Dest ID: 63 | Destination Sector: 0
wirelessCapability: 0
outport_dirn: Up
##########################################################################
Current Coordinates: (3,0,2)
Current ID: 35 | Current Sector: 0
Dest Coordinates: (0,1,1)
Dest ID: 20 | Destination Sector: 0
wirelessCapability: 0
outport_dirn: West
##########################################################################
Current Coordinates: (3,3,2)
Current ID: 47 | Current Sector: 0
Dest Coordinates: (3,3,3)
Dest ID: 63 | Destination Sector: 0
wirelessCapability: 0
outport_dirn: Up
##########################################################################
Current Coordinates: (1,1,1)
Current ID: 21 | Current Sector: 0
Dest Coordinates: (2,3,2)
Dest ID: 46 | Destination Sector: 0
wirelessCapability: 0
outport_dirn: East
##########################################################################
Current Coordinates: (2,1,1)
Current ID: 22 | Current Sector: 0
Dest Coordinates: (2,3,2)
Dest ID: 46 | Destination Sector: 0
wirelessCapability: 0
outport_dirn: North
##########################################################################
Current Coordinates: (0,1,1)
Current ID: 20 | Current Sector: 0
Dest Coordinates: (2,0,2)
Dest ID: 34 | Destination Sector: 0
wirelessCapability: 0
outport_dirn: East
##########################################################################
Current Coordinates: (1,1,1)
Current ID: 21 | Current Sector: 0
Dest Coordinates: (2,0,2)
Dest ID: 34 | Destination Sector: 0
wirelessCapability: 0
outport_dirn: East
##########################################################################
Current Coordinates: (1,1,1)
Current ID: 21 | Current Sector: 0
Dest Coordinates: (3,3,3)
Dest ID: 63 | Destination Sector: 0
wirelessCapability: 0
outport_dirn: East
##########################################################################
Current Coordinates: (0,1,1)
Current ID: 20 | Current Sector: 0
Dest Coordinates: (2,0,2)
Dest ID: 34 | Destination Sector: 0
wirelessCapability: 0
outport_dirn: East
##########################################################################
Current Coordinates: (1,1,1)
Current ID: 21 | Current Sector: 0
Dest Coordinates: (2,2,1)
Dest ID: 26 | Destination Sector: 0
wirelessCapability: 0
outport_dirn: East
Exiting @ tick 1000000 because Network Tester completed simCycles
