Global frequency set at 1000000000000 ticks per second
gem5 Simulator System.  http://gem5.org
gem5 is copyrighted software; use the --copyright option for details.

gem5 version [DEVELOP-FOR-V20.2]
gem5 compiled Apr  1 2021 16:46:17
gem5 started Apr  1 2021 21:13:12
gem5 executing on grid42, pid 2103
command line: condor_exec.exe /home/aw868/new_aw868_gem5/configs/example/garnet_synth_traffic.py --num-cpus=512 --num-dirs=512 --network=garnet --topology=NonUniform_Chiplets --mesh-rows=8 --mesh-cols=8 --z-depth=8 --nu-chiplets-input=0,0,1,4,2,0,7,1,2,2,2,3,3,2,6,2,7,2,7,3,3,3,4,4,5,3,5,5,6,3,6,5,2,4,2,6,7,4,7,7,0,5,0,7,1,5,1,5,3,5,4,5,1,6,1,7,3,6,4,7,5,6,6,6,2,7,2,7,5,7,5,7,6,7,6,7 --sim-cycles=1000000 --synthetic=uniform_random --routing-algorithm=4 --vcs-per-vnet=4 --injectionrate=0.5

info: Standard input is not a terminal, disabling listeners.
File: NonUniform_Chiplets.py
len(nodes) (includes caches and directories):  1024
number of user specified routers:  512
number of routers in layer 0:  64
total number of routers:  576
x_depth:  8
y_depth:  8
z_depth:  8
true_z_depth 9


total routers created:  576

cache_nodes:  512
dir_nodes:  512

NUM EAST-WEST LINKS =  504
NUM WEST-EAST LINKS =  504
NUM NORTH-SOUTH LINKS =  504
NUM SOUTH-NORTH LINKS =  504
NUM UP-DOWN LINKS =  512
NUM DOWN-UP LINKS =  512
TOTAL NUM LINKS =  3040 

