gem5 Simulator System.  http://gem5.org
gem5 is copyrighted software; use the --copyright option for details.

gem5 version [DEVELOP-FOR-V20.2]
gem5 compiled Mar 29 2021 00:51:50
gem5 started Mar 30 2021 19:54:24
gem5 executing on grid42, pid 1119338
command line: condor_exec.exe /home/aw868/new_aw868_gem5/configs/example/garnet_synth_traffic.py --num-cpus=64 --num-dirs=64 --network=garnet --topology=Wireless_NUChiplets --mesh-rows=4 --mesh-cols=4 --z-depth=4 --nu-chiplets-input=0,0,3,3 --sim-cycles=1000000 --synthetic=uniform_random --wireless-input-pattern=u --wireless-input=0,0,0,3,4,3,1,2,1,2,2,3,0,3,0 --routing-algorithm=5 --vcs-per-vnet=4 --injectionrate=0.5

info: Standard input is not a terminal, disabling listeners.
File: Wireless_NUChiplets.py
len(nodes) (includes caches and directories):  128
wirelessInput:  [0, 0, 0, 3, 4, 3, 1, 2, 1, 2, 2, 3, 0, 3, 0]
user-designated wireless
16
