Global frequency set at 1000000000000 ticks per second
Using Non-Uniform Chiplet Routing Algorithm

base_router_list:
18, 18,  1,  1,  1,  1,  1,  1,  1,  1,  1,  7,  7, 19, 19, 14, 
15, 16,  1,  1,  1,  1,  1,  1,  1,  1,  1,  7,  7, 17, 17, 14, 
12, 10,  1,  1,  1,  1,  1,  1,  1,  1,  1,  7,  7, 13, 13, 14, 
 4, 10,  1,  1,  1,  1,  1,  1,  1,  1,  1,  7,  7,  8,  8, 11, 
 4, 10,  1,  1,  1,  1,  1,  1,  1,  1,  1,  7,  7,  8,  8,  9, 
 4,  5,  1,  1,  1,  1,  1,  1,  1,  1,  1,  7,  7,  8,  8,  9, 
 4,  5,  1,  1,  1,  1,  1,  1,  1,  1,  1,  2,  2,  2,  2,  6, 
 4,  5,  1,  1,  1,  1,  1,  1,  1,  1,  1,  2,  2,  2,  2,  6, 
 4,  5,  1,  1,  1,  1,  1,  1,  1,  1,  1,  2,  2,  2,  2,  3, 
 4,  5,  1,  1,  1,  1,  1,  1,  1,  1,  1,  2,  2,  2,  2,  3, 
 4,  5,  1,  1,  1,  1,  1,  1,  1,  1,  1,  2,  2,  2,  2,  3, 
 4,  5,  1,  1,  1,  1,  1,  1,  1,  1,  1,  2,  2,  2,  2,  3, 
 4,  5,  1,  1,  1,  1,  1,  1,  1,  1,  1,  2,  2,  2,  2,  3, 
 4,  5,  1,  1,  1,  1,  1,  1,  1,  1,  1,  2,  2,  2,  2,  3, 
 0,  0,  1,  1,  1,  1,  1,  1,  1,  1,  1,  2,  2,  2,  2,  3, 
 0,  0,  1,  1,  1,  1,  1,  1,  1,  1,  1,  2,  2,  2,  2,  3, 
m_num_unused_links: 178
gem5 Simulator System.  http://gem5.org
gem5 is copyrighted software; use the --copyright option for details.

gem5 version [DEVELOP-FOR-V20.2]
gem5 compiled Apr 17 2021 16:19:41
gem5 started Apr 20 2021 02:50:24
gem5 executing on grid42, pid 653671
command line: condor_exec.exe /home/aw868/new_aw868_gem5/configs/example/garnet_synth_traffic.py --num-cpus=512 --num-dirs=256 --network=garnet --topology=Sparse_NonUniform_Chiplets --mesh-rows=16 --mesh-cols=16 --z-depth=2 --nu-chiplets-input=0,0,1,1,2,0,10,15,11,0,14,9,15,0,15,7,0,2,0,12,1,2,1,10,15,8,15,9,11,10,12,15,13,10,14,12,15,10,15,11,1,11,1,13,15,12,15,12,0,13,0,13,13,13,14,13,15,13,15,15,0,14,0,14,1,14,1,14,13,14,14,14,0,15,1,15,13,15,14,15 --sim-cycles=10000000 --synthetic=uniform_random --routing-algorithm=4 --vcs-per-vnet=4 --injectionrate=0.08

info: Standard input is not a terminal, disabling listeners.
File: Sparse_NonUniform_Chiplets.py
len(nodes) (includes caches and directories):  768
number of user specified routers:  512
number of user specified directories:  256
number of user specified routers:  512
number of routers in layer 0:  256
total number of routers:  768
x_depth:  16
y_depth:  16
z_depth:  2
true_z_depth 3


total routers created:  768

len(cache_nodes):  512
len(dir_nodes):  256
dir_routers:  [0, 2, 4, 6, 8, 10, 12, 14, 17, 19, 21, 23, 25, 27, 29, 31, 32, 34, 36, 38, 40, 42, 44, 46, 49, 51, 53, 55, 57, 59, 61, 63, 64, 66, 68, 70, 72, 74, 76, 78, 81, 83, 85, 87, 89, 91, 93, 95, 96, 98, 100, 102, 104, 106, 108, 110, 113, 115, 117, 119, 121, 123, 125, 127, 128, 130, 132, 134, 136, 138, 140, 142, 145, 147, 149, 151, 153, 155, 157, 159, 160, 162, 164, 166, 168, 170, 172, 174, 177, 179, 181, 183, 185, 187, 189, 191, 192, 194, 196, 198, 200, 202, 204, 206, 209, 211, 213, 215, 217, 219, 221, 223, 224, 226, 228, 230, 232, 234, 236, 238, 241, 243, 245, 247, 249, 251, 253, 255, 257, 259, 261, 263, 265, 267, 269, 271, 272, 274, 276, 278, 280, 282, 284, 286, 289, 291, 293, 295, 297, 299, 301, 303, 304, 306, 308, 310, 312, 314, 316, 318, 321, 323, 325, 327, 329, 331, 333, 335, 336, 338, 340, 342, 344, 346, 348, 350, 353, 355, 357, 359, 361, 363, 365, 367, 368, 370, 372, 374, 376, 378, 380, 382, 385, 387, 389, 391, 393, 395, 397, 399, 400, 402, 404, 406, 408, 410, 412, 414, 417, 419, 421, 423, 425, 427, 429, 431, 432, 434, 436, 438, 440, 442, 444, 446, 449, 451, 453, 455, 457, 459, 461, 463, 464, 466, 468, 470, 472, 474, 476, 478, 481, 483, 485, 487, 489, 491, 493, 495, 496, 498, 500, 502, 504, 506, 508, 510]

NUM EAST-WEST LINKS =  720
NUM WEST-EAST LINKS =  720
NUM NORTH-SOUTH LINKS =  720
NUM SOUTH-NORTH LINKS =  720
NUM UP-DOWN LINKS =  512
NUM DOWN-UP LINKS =  512
TOTAL NUM LINKS =  3904 

Exiting @ tick 10000000 because Network Tester completed simCycles
