Global frequency set at 1000000000000 ticks per second
Using Wireless Routing Algorithm

base_router_list:
 6,  6,  6,  6,  6,  6,  6,  6,  7,  7,  7,  7,  7,  7,  7,  7, 
 6,  6,  6,  6,  6,  6,  6,  6,  7,  7,  7,  7,  7,  7,  7,  7, 
 6,  6,  6,  6,  6,  6,  6,  6,  7,  7,  7,  7,  7,  7,  7,  7, 
 6,  6,  6,  6,  6,  6,  6,  6,  7,  7,  7,  7,  7,  7,  7,  7, 
 4,  4,  4,  4,  4,  4,  4,  4,  5,  5,  5,  5,  5,  5,  5,  5, 
 4,  4,  4,  4,  4,  4,  4,  4,  5,  5,  5,  5,  5,  5,  5,  5, 
 4,  4,  4,  4,  4,  4,  4,  4,  5,  5,  5,  5,  5,  5,  5,  5, 
 4,  4,  4,  4,  4,  4,  4,  4,  5,  5,  5,  5,  5,  5,  5,  5, 
 2,  2,  2,  2,  2,  2,  2,  2,  3,  3,  3,  3,  3,  3,  3,  3, 
 2,  2,  2,  2,  2,  2,  2,  2,  3,  3,  3,  3,  3,  3,  3,  3, 
 2,  2,  2,  2,  2,  2,  2,  2,  3,  3,  3,  3,  3,  3,  3,  3, 
 2,  2,  2,  2,  2,  2,  2,  2,  3,  3,  3,  3,  3,  3,  3,  3, 
 0,  0,  0,  0,  0,  0,  0,  0,  1,  1,  1,  1,  1,  1,  1,  1, 
 0,  0,  0,  0,  0,  0,  0,  0,  1,  1,  1,  1,  1,  1,  1,  1, 
 0,  0,  0,  0,  0,  0,  0,  0,  1,  1,  1,  1,  1,  1,  1,  1, 
 0,  0,  0,  0,  0,  0,  0,  0,  1,  1,  1,  1,  1,  1,  1,  1, 
m_num_unused_links: 128
m_wireless_list: 279, 301, 362, 367, 377, 386, 395, 416, 430, 439, 454, 466, 471, 479, 485, 488, 539, 562, 566, 590, 601, 612, 654, 681, 694, 703, 715, 724, 729, 732, 763, 766, 
gem5 Simulator System.  http://gem5.org
gem5 is copyrighted software; use the --copyright option for details.

gem5 version [DEVELOP-FOR-V20.2]
gem5 compiled Apr 17 2021 16:19:41
gem5 started Apr 24 2021 10:12:13
gem5 executing on grid42, pid 993026
command line: condor_exec.exe /home/aw868/new_aw868_gem5/configs/example/garnet_synth_traffic.py --num-cpus=512 --num-dirs=256 --network=garnet --topology=Sparse_Wireless_NUChiplets --mesh-rows=16 --mesh-cols=16 --z-depth=2 --nu-chiplets-input=0,0,7,3,8,0,15,3,0,4,7,7,8,4,15,7,0,8,7,11,8,8,15,11,0,12,7,15,8,12,15,15 --wireless-input-pattern=u --wireless-input=12,6,0,7,9,0,14,5,0,8,2,0,6,10,0,1,7,0,13,7,0,8,11,0,13,2,0,2,13,0,10,0,0,6,15,0,10,14,0,14,8,0,13,15,0,11,7,0,5,9,1,4,14,1,13,4,1,11,15,1,1,11,1,13,9,1,10,9,1,11,6,1,3,2,1,15,11,1,3,6,1,8,14,1,6,4,1,12,11,1,13,12,1,15,14,1 --sim-cycles=10000000 --synthetic=uniform_random --routing-algorithm=5 --vcs-per-vnet=4 --injectionrate=0.065

info: Standard input is not a terminal, disabling listeners.
File: Sparse_Wireless_NUChiplets.py
len(nodes) (includes caches and directories):  768
number of user specified routers:  512
number of user specified directories:  256
wirelessInput:  [12, 6, 0, 7, 9, 0, 14, 5, 0, 8, 2, 0, 6, 10, 0, 1, 7, 0, 13, 7, 0, 8, 11, 0, 13, 2, 0, 2, 13, 0, 10, 0, 0, 6, 15, 0, 10, 14, 0, 14, 8, 0, 13, 15, 0, 11, 7, 0, 5, 9, 1, 4, 14, 1, 13, 4, 1, 11, 15, 1, 1, 11, 1, 13, 9, 1, 10, 9, 1, 11, 6, 1, 3, 2, 1, 15, 11, 1, 3, 6, 1, 8, 14, 1, 6, 4, 1, 12, 11, 1, 13, 12, 1, 15, 14, 1]
user-designated wireless
454
377
485
386
362
279
471
395
466
301
416
367
430
488
479
439
601
590
724
703
539
729
681
694
562
763
566
654
612
715
732
766
wirelessRouters:  [454, 377, 485, 386, 362, 279, 471, 395, 466, 301, 416, 367, 430, 488, 479, 439, 601, 590, 724, 703, 539, 729, 681, 694, 562, 763, 566, 654, 612, 715, 732, 766]
 32  32  32  32  32  32  32  32  32  32  32   4  32  32   4  32 
 32  32  32  32  32  32  32  32  32  32  32  32  32  32  32  32 
 32  32  32  32   4  32  32  32  32   4  32  32   4  32  32  32 
 32  32  32  32  32  32  32  32  32  32  32   4  32  32  32  32 
 32  32  32  32  32  32   4  32  32  32  32  32  32  32  32   4 
 32  32  32  32  32  32  32  32  32   4  32  32  32  32  32  32 
 32  32  32  32  32  32  32  32  32  32  32  32  32  32  32  32 
 32  32  32  32  32  32  32  32  32  32  32  32  32  32   4  32 
 32  32  32  32  32  32  32  32  32  32  32  32  32  32  32  32 
 32  32  32  32   4  32  32  32  32  32  32  32  32  32  32  32 
 32  32  32  32  32  32  32  32  32   4  32  32  32  32  32  32 
 32  32  32  32  32  32  32  32  32  32  32  32  32  32   4  32 
 32  32   4  32  32  32   4  32  32  32  32  32  32  32  32  32 
 32  32  32  32  32  32  32  32  32  32  32  32  32  32  32  32 
 32  32  32  32  32  32  32  32  32  32  32   4  32  32  32  32 
 32  32  32  32  32  32  32  32  32  32  32  32  32  32  32  32 

 32  32  32  32  32  32  32  32  32  32  32  32  32  32  32  32 
 32  32  32  32  32   4  32  32   4  32  32  32  32  32  32  32 
 32  32   4  32  32  32  32   4  32  32  32  32  32  32  32   4 
 32  32  32  32  32  32   4  32  32  32  32  32  32  32  32  32 
 32  32  32  32  32  32  32   4  32  32  32  32  32  32  32  32 
  4  32  32  32  32  32  32  32  32  32  32  32  32  32   4  32 
 32  32  32  32  32  32  32  32  32  32  32  32  32  32  32  32 
 32  32   4  32  32  32  32  32  32  32  32   4  32  32  32  32 
 32  32  32  32  32  32  32  32  32   4  32  32  32  32  32  32 
 32  32  32  32  32  32  32  32  32  32   4  32  32  32  32   4 
 32  32  32  32  32  32  32  32  32  32  32  32  32  32  32  32 
 32  32  32  32  32  32  32  32  32  32  32  32  32  32  32  32 
 32  32  32  32  32  32  32  32  32  32  32  32  32  32  32  32 
 32  32  32  32  32  32  32  32  32  32  32  32  32   4  32  32 
 32  32  32  32  32  32  32   4  32  32  32  32  32  32  32  32 
 32  32  32  32  32  32  32  32  32  32  32  32  32  32  32  32 

 32  32  32  32  32  32  32  32  32  32  32  32  32  32  32  32 
 32  32  32  32  32  32  32  32  32  32  32  32  32  32  32  32 
 32  32  32  32  32  32  32  32  32  32  32  32  32  32  32  32 
 32  32  32  32  32  32  32  32  32  32  32  32  32  32  32  32 
 32  32  32  32  32  32  32  32  32  32  32  32  32  32  32  32 
 32  32  32  32  32  32  32  32  32  32  32  32  32  32  32  32 
 32  32  32  32  32  32  32  32  32  32  32  32  32  32  32  32 
 32  32  32  32  32  32  32  32  32  32  32  32  32  32  32  32 
 32  32  32  32  32  32  32  32  32  32  32  32  32  32  32  32 
 32  32  32  32  32  32  32  32  32  32  32  32  32  32  32  32 
 32  32  32  32  32  32  32  32  32  32  32  32  32  32  32  32 
 32  32  32  32  32  32  32  32  32  32  32  32  32  32  32  32 
 32  32  32  32  32  32  32  32  32  32  32  32  32  32  32  32 
 32  32  32  32  32  32  32  32  32  32  32  32  32  32  32  32 
 32  32  32  32  32  32  32  32  32  32  32  32  32  32  32  32 
 32  32  32  32  32  32  32  32  32  32  32  32  32  32  32  32 

number of user specified routers:  512
number of routers in layer 0:  256
total number of routers:  768
x_depth:  16
y_depth:  16
true_z_depth 3
total routers created:  768

len(cache_nodes):  512
len(dir_nodes):  256
dir_routers:  [0, 2, 4, 6, 8, 10, 12, 14, 17, 19, 21, 23, 25, 27, 29, 31, 32, 34, 36, 38, 40, 42, 44, 46, 49, 51, 53, 55, 57, 59, 61, 63, 64, 66, 68, 70, 72, 74, 76, 78, 81, 83, 85, 87, 89, 91, 93, 95, 96, 98, 100, 102, 104, 106, 108, 110, 113, 115, 117, 119, 121, 123, 125, 127, 128, 130, 132, 134, 136, 138, 140, 142, 145, 147, 149, 151, 153, 155, 157, 159, 160, 162, 164, 166, 168, 170, 172, 174, 177, 179, 181, 183, 185, 187, 189, 191, 192, 194, 196, 198, 200, 202, 204, 206, 209, 211, 213, 215, 217, 219, 221, 223, 224, 226, 228, 230, 232, 234, 236, 238, 241, 243, 245, 247, 249, 251, 253, 255, 257, 259, 261, 263, 265, 267, 269, 271, 272, 274, 276, 278, 280, 282, 284, 286, 289, 291, 293, 295, 297, 299, 301, 303, 304, 306, 308, 310, 312, 314, 316, 318, 321, 323, 325, 327, 329, 331, 333, 335, 336, 338, 340, 342, 344, 346, 348, 350, 353, 355, 357, 359, 361, 363, 365, 367, 368, 370, 372, 374, 376, 378, 380, 382, 385, 387, 389, 391, 393, 395, 397, 399, 400, 402, 404, 406, 408, 410, 412, 414, 417, 419, 421, 423, 425, 427, 429, 431, 432, 434, 436, 438, 440, 442, 444, 446, 449, 451, 453, 455, 457, 459, 461, 463, 464, 466, 468, 470, 472, 474, 476, 478, 481, 483, 485, 487, 489, 491, 493, 495, 496, 498, 500, 502, 504, 506, 508, 510]

NUM EAST-WEST LINKS =  720
NUM WEST-EAST LINKS =  720
NUM NORTH-SOUTH LINKS =  720
NUM SOUTH-NORTH LINKS =  720
NUM UP-DOWN LINKS =  512
NUM DOWN-UP LINKS =  512
WIRELESS LINKS =  992
TOTAL NUM LINKS =  4896 

transmission_count: 1
transmission_count: 2
transmission_count: 3
transmission_count: 4
transmission_count: 5
transmission_count: 6
transmission_count: 7
Exiting @ tick 10000000 because Network Tester completed simCycles
