Global frequency set at 1000000000000 ticks per second
Using Non-Uniform Chiplet Routing Algorithm

base_router_list:
26, 27, 17, 32, 32, 32, 35, 35, 35, 36, 37, 31, 38, 38, 19, 34, 
26, 27, 17, 32, 32, 32, 33, 33, 33, 33, 33, 31, 30, 11, 19, 34, 
26, 27, 17, 20, 20, 28, 28, 28, 28, 21, 16, 31, 30, 11, 19, 25, 
26, 27, 17, 20, 20, 28, 28, 28, 28, 21, 16, 29, 30, 11, 19, 25, 
22, 22, 17, 20, 20, 23, 23, 23, 23, 21, 16,  3, 24, 11, 19, 25, 
12, 12, 17, 20, 20, 10, 14, 14, 14, 21, 16,  3,  6, 11, 19,  5, 
12, 12, 17,  9,  9, 10, 14, 14, 14, 15, 16,  3,  6, 11, 19,  5, 
12, 12, 17,  9,  9, 10, 14, 14, 14, 15, 16,  3,  6, 11, 18,  5, 
12, 12, 13,  9,  9, 10, 14, 14, 14, 15, 16,  3,  6, 11,  8,  5, 
12, 12, 13,  9,  9, 10,  2,  2,  2,  2,  2,  3,  6, 11,  8,  5, 
 0,  0,  0,  9,  9, 10,  2,  2,  2,  2,  2,  3,  6, 11,  8,  5, 
 0,  0,  0,  9,  9, 10,  2,  2,  2,  2,  2,  3,  6,  7,  8,  5, 
 0,  0,  0,  1,  1,  1,  2,  2,  2,  2,  2,  3,  6,  7,  8,  5, 
 0,  0,  0,  1,  1,  1,  2,  2,  2,  2,  2,  3,  6,  7,  8,  5, 
 0,  0,  0,  1,  1,  1,  2,  2,  2,  2,  2,  3,  4,  4,  4,  5, 
 0,  0,  0,  1,  1,  1,  2,  2,  2,  2,  2,  3,  4,  4,  4,  5, 
m_num_unused_links: 396
gem5 Simulator System.  http://gem5.org
gem5 is copyrighted software; use the --copyright option for details.

gem5 version [DEVELOP-FOR-V20.2]
gem5 compiled Apr 25 2021 17:25:42
gem5 started May  5 2021 20:26:47
gem5 executing on grid36, pid 21948
command line: condor_exec.exe /home/aw868/new_aw868_gem5/configs/example/garnet_synth_traffic.py --num-cpus=512 --num-dirs=256 --network=garnet --topology=Sparse_NonUniform_Chiplets --mesh-rows=16 --mesh-cols=16 --z-depth=2 --nu-chiplets-input=0,0,2,5,3,0,5,3,6,0,10,6,11,0,11,11,12,0,14,1,15,0,15,10,12,2,12,10,13,2,13,4,14,2,14,7,3,4,4,9,5,4,5,10,13,5,13,14,0,6,1,10,2,6,2,7,6,7,8,10,9,7,9,9,10,7,10,13,2,8,2,15,14,8,14,8,14,9,14,15,3,10,4,13,9,10,9,13,0,11,1,11,5,11,8,11,12,11,12,11,15,11,15,13,0,12,0,15,1,12,1,15,5,12,8,13,11,12,11,12,12,12,12,14,11,13,11,15,3,14,5,15,6,14,10,14,15,14,15,15,6,15,8,15,9,15,9,15,10,15,10,15,12,15,13,15 --sim-cycles=10000000 --synthetic=uniform_random --routing-algorithm=4 --vcs-per-vnet=4 --injectionrate=0.125

info: Standard input is not a terminal, disabling listeners.
File: Sparse_NonUniform_Chiplets.py
len(nodes) (includes caches and directories):  768
number of user specified routers:  512
number of user specified directories:  256
number of user specified routers:  512
number of routers in layer 0:  256
total number of routers:  768
x_depth:  16
y_depth:  16
z_depth:  2
true_z_depth 3


total routers created:  768

len(cache_nodes):  512
len(dir_nodes):  256
dir_routers:  [0, 2, 4, 6, 8, 10, 12, 14, 17, 19, 21, 23, 25, 27, 29, 31, 32, 34, 36, 38, 40, 42, 44, 46, 49, 51, 53, 55, 57, 59, 61, 63, 64, 66, 68, 70, 72, 74, 76, 78, 81, 83, 85, 87, 89, 91, 93, 95, 96, 98, 100, 102, 104, 106, 108, 110, 113, 115, 117, 119, 121, 123, 125, 127, 128, 130, 132, 134, 136, 138, 140, 142, 145, 147, 149, 151, 153, 155, 157, 159, 160, 162, 164, 166, 168, 170, 172, 174, 177, 179, 181, 183, 185, 187, 189, 191, 192, 194, 196, 198, 200, 202, 204, 206, 209, 211, 213, 215, 217, 219, 221, 223, 224, 226, 228, 230, 232, 234, 236, 238, 241, 243, 245, 247, 249, 251, 253, 255, 257, 259, 261, 263, 265, 267, 269, 271, 272, 274, 276, 278, 280, 282, 284, 286, 289, 291, 293, 295, 297, 299, 301, 303, 304, 306, 308, 310, 312, 314, 316, 318, 321, 323, 325, 327, 329, 331, 333, 335, 336, 338, 340, 342, 344, 346, 348, 350, 353, 355, 357, 359, 361, 363, 365, 367, 368, 370, 372, 374, 376, 378, 380, 382, 385, 387, 389, 391, 393, 395, 397, 399, 400, 402, 404, 406, 408, 410, 412, 414, 417, 419, 421, 423, 425, 427, 429, 431, 432, 434, 436, 438, 440, 442, 444, 446, 449, 451, 453, 455, 457, 459, 461, 463, 464, 466, 468, 470, 472, 474, 476, 478, 481, 483, 485, 487, 489, 491, 493, 495, 496, 498, 500, 502, 504, 506, 508, 510]

NUM EAST-WEST LINKS =  720
NUM WEST-EAST LINKS =  720
NUM NORTH-SOUTH LINKS =  720
NUM SOUTH-NORTH LINKS =  720
NUM UP-DOWN LINKS =  512
NUM DOWN-UP LINKS =  512
TOTAL NUM LINKS =  3904 

Exiting @ tick 10000000 because Network Tester completed simCycles
