Global frequency set at 1000000000000 ticks per second
Using Uniform Chiplet Routing Algorithm
gem5 Simulator System.  http://gem5.org
gem5 is copyrighted software; use the --copyright option for details.

gem5 version [DEVELOP-FOR-V20.2]
gem5 compiled Mar 29 2021 00:51:50
gem5 started Mar 29 2021 00:59:24
gem5 executing on grid42, pid 74718
command line: condor_exec.exe /home/aw868/new_aw868_gem5/configs/example/garnet_synth_traffic.py --num-cpus=64 --num-dirs=64 --network=garnet --topology=Mesh_XYZ --mesh-rows=4 --mesh-cols=4 --z-depth=4 --sim-cycles=1000000 --synthetic=uniform_random --routing-algorithm=3 --vcs-per-vnet=4 --injectionrate=0.5

info: Standard input is not a terminal, disabling listeners.
File: Mesh_XYZ.py
Total Number Routers:  64
x_depth:  4
y_depth:  4
z_depth:  4

NUM EAST-WEST LINKS =  48
NUM WEST-EAST LINKS =  48
NUM NORTH-SOUTH LINKS =  48
NUM SOUTH-NORTH LINKS =  48
NUM UP-DOWN LINKS =  48
NUM DOWN-UP LINKS =  48
TOTAL NUM LINKS =  288 

Exiting @ tick 1000000 because Network Tester completed simCycles
