Global frequency set at 1000000000000 ticks per second
Using Wireless Routing Algorithm

base_router_list:
 6,  6,  6,  6,  6,  6,  6,  6,  7,  7,  7,  7,  7,  7,  7,  7, 
 6,  6,  6,  6,  6,  6,  6,  6,  7,  7,  7,  7,  7,  7,  7,  7, 
 6,  6,  6,  6,  6,  6,  6,  6,  7,  7,  7,  7,  7,  7,  7,  7, 
 6,  6,  6,  6,  6,  6,  6,  6,  7,  7,  7,  7,  7,  7,  7,  7, 
 4,  4,  4,  4,  4,  4,  4,  4,  5,  5,  5,  5,  5,  5,  5,  5, 
 4,  4,  4,  4,  4,  4,  4,  4,  5,  5,  5,  5,  5,  5,  5,  5, 
 4,  4,  4,  4,  4,  4,  4,  4,  5,  5,  5,  5,  5,  5,  5,  5, 
 4,  4,  4,  4,  4,  4,  4,  4,  5,  5,  5,  5,  5,  5,  5,  5, 
 2,  2,  2,  2,  2,  2,  2,  2,  3,  3,  3,  3,  3,  3,  3,  3, 
 2,  2,  2,  2,  2,  2,  2,  2,  3,  3,  3,  3,  3,  3,  3,  3, 
 2,  2,  2,  2,  2,  2,  2,  2,  3,  3,  3,  3,  3,  3,  3,  3, 
 2,  2,  2,  2,  2,  2,  2,  2,  3,  3,  3,  3,  3,  3,  3,  3, 
 0,  0,  0,  0,  0,  0,  0,  0,  1,  1,  1,  1,  1,  1,  1,  1, 
 0,  0,  0,  0,  0,  0,  0,  0,  1,  1,  1,  1,  1,  1,  1,  1, 
 0,  0,  0,  0,  0,  0,  0,  0,  1,  1,  1,  1,  1,  1,  1,  1, 
 0,  0,  0,  0,  0,  0,  0,  0,  1,  1,  1,  1,  1,  1,  1,  1, 
m_num_unused_links: 128
m_wireless_list: 264, 267, 312, 329, 341, 358, 370, 372, 380, 385, 431, 438, 440, 465, 495, 505, 516, 540, 555, 601, 606, 609, 630, 633, 648, 652, 666, 684, 725, 729, 739, 760, 
gem5 Simulator System.  http://gem5.org
gem5 is copyrighted software; use the --copyright option for details.

gem5 version [DEVELOP-FOR-V20.2]
gem5 compiled Apr 25 2021 17:25:42
gem5 started May  8 2021 23:38:58
gem5 executing on grid36, pid 1426966
command line: condor_exec.exe /home/aw868/new_aw868_gem5/configs/example/garnet_synth_traffic.py --num-cpus=512 --num-dirs=256 --network=garnet --topology=Sparse_Wireless_NUChiplets --mesh-rows=16 --mesh-cols=16 --z-depth=2 --nu-chiplets-input=0,0,7,3,8,0,15,3,0,4,7,7,8,4,15,7,0,8,7,11,8,8,15,11,0,12,7,15,8,12,15,15 --wireless-input-pattern=u --wireless-input=4,9,0,8,1,0,11,6,0,5,5,0,7,2,0,11,8,0,3,8,0,7,12,0,7,4,0,14,15,0,0,8,0,13,1,0,10,15,0,6,6,0,15,9,0,0,11,0,14,3,1,9,10,1,1,12,1,5,9,1,0,4,1,8,8,1,5,14,1,7,9,1,8,12,1,13,9,1,2,11,1,13,5,1,6,1,1,7,6,1,15,8,1,10,12,1 --sim-cycles=10000000 --synthetic=uniform_random --routing-algorithm=5 --vcs-per-vnet=4 --injectionrate=0.095

info: Standard input is not a terminal, disabling listeners.
File: Sparse_Wireless_NUChiplets.py
len(nodes) (includes caches and directories):  768
number of user specified routers:  512
number of user specified directories:  256
wirelessInput:  [4, 9, 0, 8, 1, 0, 11, 6, 0, 5, 5, 0, 7, 2, 0, 11, 8, 0, 3, 8, 0, 7, 12, 0, 7, 4, 0, 14, 15, 0, 0, 8, 0, 13, 1, 0, 10, 15, 0, 6, 6, 0, 15, 9, 0, 0, 11, 0, 14, 3, 1, 9, 10, 1, 1, 12, 1, 5, 9, 1, 0, 4, 1, 8, 8, 1, 5, 14, 1, 7, 9, 1, 8, 12, 1, 13, 9, 1, 2, 11, 1, 13, 5, 1, 6, 1, 1, 7, 6, 1, 15, 8, 1, 10, 12, 1]
user-designated wireless
329
385
438
341
370
440
312
380
372
495
264
465
431
358
505
267
739
666
540
601
516
648
606
633
652
729
555
725
609
630
760
684
wirelessRouters:  [329, 385, 438, 341, 370, 440, 312, 380, 372, 495, 264, 465, 431, 358, 505, 267, 739, 666, 540, 601, 516, 648, 606, 633, 652, 729, 555, 725, 609, 630, 760, 684]
 32  32  32  32  32  32  32  32   4  32  32  32  32  32  32  32 
 32  32  32   4  32  32  32  32  32  32  32  32  32  32  32  32 
 32  32  32  32  32   4  32  32  32   4  32  32  32  32  32  32 
 32  32  32  32  32  32  32  32  32  32  32  32  32  32  32  32 
 32  32  32  32  32  32  32  32  32  32  32  32  32  32  32  32 
 32  32  32  32  32  32  32  32  32  32  32  32   4  32  32  32 
 32  32  32  32  32  32  32  32  32  32   4  32  32  32  32  32 
 32  32  32  32  32  32  32  32   4  32  32  32   4  32  32  32 
 32  32  32  32  32  32   4  32  32   4  32  32  32  32  32  32 
 32   4  32  32  32  32  32  32  32  32  32  32  32  32  32  32 
 32  32  32  32  32  32  32  32  32   4  32  32  32  32   4  32 
 32  32  32  32  32  32  32  32  32  32  32  32  32  32  32  32 
 32  32  32  32  32  32  32  32  32  32  32  32  32  32  32  32 
 32  32  32  32  32  32  32  32  32  32  32   4  32  32  32  32 
 32  32  32  32  32  32  32  32  32  32  32  32   4  32  32  32 
 32  32  32  32   4  32  32  32  32  32  32  32  32  32  32  32 

 32  32  32  32  32  32  32  32  32   4  32  32  32  32  32  32 
 32  32  32  32  32  32  32  32  32  32  32  32  32  32  32   4 
 32   4  32  32  32  32  32  32  32  32  32  32  32  32  32  32 
 32  32  32  32  32  32  32  32  32  32  32  32  32  32  32  32 
 32  32  32  32  32  32   4  32   4  32  32  32  32  32  32  32 
 32  32  32  32  32  32  32  32  32  32  32  32  32  32  32   4 
 32  32  32  32  32  32  32  32  32  32  32  32  32  32  32  32 
 32   4  32  32  32  32  32  32  32  32  32  32  32  32  32  32 
 32  32   4  32   4  32  32  32  32  32  32  32   4  32  32  32 
 32  32  32  32  32  32   4  32  32  32  32  32  32  32  32  32 
 32  32  32  32  32   4  32  32  32  32  32  32  32  32  32  32 
 32  32  32  32  32  32  32  32  32   4  32  32  32  32  32  32 
 32  32  32  32  32  32  32  32   4  32  32  32  32  32  32  32 
 32  32  32  32  32  32  32  32  32  32  32  32  32  32  32  32 
 32  32  32  32  32  32  32  32  32  32  32  32  32  32  32  32 
 32  32  32  32  32  32  32  32   4  32  32   4  32  32  32  32 

 32  32  32  32  32  32  32  32  32  32  32  32  32  32  32  32 
 32  32  32  32  32  32  32  32  32  32  32  32  32  32  32  32 
 32  32  32  32  32  32  32  32  32  32  32  32  32  32  32  32 
 32  32  32  32  32  32  32  32  32  32  32  32  32  32  32  32 
 32  32  32  32  32  32  32  32  32  32  32  32  32  32  32  32 
 32  32  32  32  32  32  32  32  32  32  32  32  32  32  32  32 
 32  32  32  32  32  32  32  32  32  32  32  32  32  32  32  32 
 32  32  32  32  32  32  32  32  32  32  32  32  32  32  32  32 
 32  32  32  32  32  32  32  32  32  32  32  32  32  32  32  32 
 32  32  32  32  32  32  32  32  32  32  32  32  32  32  32  32 
 32  32  32  32  32  32  32  32  32  32  32  32  32  32  32  32 
 32  32  32  32  32  32  32  32  32  32  32  32  32  32  32  32 
 32  32  32  32  32  32  32  32  32  32  32  32  32  32  32  32 
 32  32  32  32  32  32  32  32  32  32  32  32  32  32  32  32 
 32  32  32  32  32  32  32  32  32  32  32  32  32  32  32  32 
 32  32  32  32  32  32  32  32  32  32  32  32  32  32  32  32 

number of user specified routers:  512
number of routers in layer 0:  256
total number of routers:  768
x_depth:  16
y_depth:  16
true_z_depth 3
total routers created:  768

len(cache_nodes):  512
len(dir_nodes):  256
dir_routers:  [0, 2, 4, 6, 8, 10, 12, 14, 17, 19, 21, 23, 25, 27, 29, 31, 32, 34, 36, 38, 40, 42, 44, 46, 49, 51, 53, 55, 57, 59, 61, 63, 64, 66, 68, 70, 72, 74, 76, 78, 81, 83, 85, 87, 89, 91, 93, 95, 96, 98, 100, 102, 104, 106, 108, 110, 113, 115, 117, 119, 121, 123, 125, 127, 128, 130, 132, 134, 136, 138, 140, 142, 145, 147, 149, 151, 153, 155, 157, 159, 160, 162, 164, 166, 168, 170, 172, 174, 177, 179, 181, 183, 185, 187, 189, 191, 192, 194, 196, 198, 200, 202, 204, 206, 209, 211, 213, 215, 217, 219, 221, 223, 224, 226, 228, 230, 232, 234, 236, 238, 241, 243, 245, 247, 249, 251, 253, 255, 257, 259, 261, 263, 265, 267, 269, 271, 272, 274, 276, 278, 280, 282, 284, 286, 289, 291, 293, 295, 297, 299, 301, 303, 304, 306, 308, 310, 312, 314, 316, 318, 321, 323, 325, 327, 329, 331, 333, 335, 336, 338, 340, 342, 344, 346, 348, 350, 353, 355, 357, 359, 361, 363, 365, 367, 368, 370, 372, 374, 376, 378, 380, 382, 385, 387, 389, 391, 393, 395, 397, 399, 400, 402, 404, 406, 408, 410, 412, 414, 417, 419, 421, 423, 425, 427, 429, 431, 432, 434, 436, 438, 440, 442, 444, 446, 449, 451, 453, 455, 457, 459, 461, 463, 464, 466, 468, 470, 472, 474, 476, 478, 481, 483, 485, 487, 489, 491, 493, 495, 496, 498, 500, 502, 504, 506, 508, 510]

NUM EAST-WEST LINKS =  720
NUM WEST-EAST LINKS =  720
NUM NORTH-SOUTH LINKS =  720
NUM SOUTH-NORTH LINKS =  720
NUM UP-DOWN LINKS =  512
NUM DOWN-UP LINKS =  512
WIRELESS LINKS =  992
TOTAL NUM LINKS =  4896 

transmission_count: 1
transmission_count: 2
transmission_count: 3
transmission_count: 4
transmission_count: 5
transmission_count: 6
transmission_count: 7
transmission_count: 8
transmission_count: 9
transmission_count: 10
transmission_count: 11
transmission_count: 12
transmission_count: 13
transmission_count: 14
transmission_count: 15
transmission_count: 16
Exiting @ tick 10000000 because Network Tester completed simCycles
