Global frequency set at 1000000000000 ticks per second
Using Non-Uniform Chiplet Routing Algorithm
calculateNUChipletVector(string nonuniform_chiplet_input)

base_router_list:
 0,  1, 
 0,  1, 
 0,  1, 
 0,  1, 
gem5 Simulator System.  http://gem5.org
gem5 is copyrighted software; use the --copyright option for details.

gem5 version [DEVELOP-FOR-V20.2]
gem5 compiled Mar 29 2021 00:51:50
gem5 started Mar 29 2021 00:59:24
gem5 executing on grid42, pid 74736
command line: condor_exec.exe /home/aw868/new_aw868_gem5/configs/example/garnet_synth_traffic.py --num-cpus=8 --num-dirs=8 --network=garnet --topology=NonUniform_Chiplets --mesh-rows=4 --mesh-cols=2 --z-depth=1 --nu-chiplets-input=0,0,0,3,1,0,1,3 --sim-cycles=1000000 --synthetic=uniform_random --routing-algorithm=4 --vcs-per-vnet=4 --injectionrate=0.5

info: Standard input is not a terminal, disabling listeners.
File: NonUniform_Chiplets.py
len(nodes) (includes caches and directories):  16
number of user specified routers:  8
number of routers in layer 0:  8
total number of routers:  16
x_depth:  2
y_depth:  4
z_depth:  1
true_z_depth 2


total routers created:  16

cache_nodes:  8
dir_nodes:  8

NUM EAST-WEST LINKS =  8
NUM WEST-EAST LINKS =  8
NUM NORTH-SOUTH LINKS =  12
NUM SOUTH-NORTH LINKS =  12
NUM UP-DOWN LINKS =  8
NUM DOWN-UP LINKS =  8
TOTAL NUM LINKS =  56 

##########################################################################
outportComputeNUChiplets()
Current Coordinates: (1,3,0)
Current ID: 14 | Current Sector: 0
Dest Coordinates: (1,2,1)
Dest ID: 13 | Destination Sector: 1
outport_dirn: Down
##########################################################################
outportComputeNUChiplets()
Current Coordinates: (1,2,1)
Current ID: 13 | Current Sector: 1
Dest Coordinates: (1,1,1)
Dest ID: 11 | Destination Sector: 1
outport_dirn: South
##########################################################################
outportComputeNUChiplets()
Current Coordinates: (1,1,1)
Current ID: 11 | Current Sector: 1
Dest Coordinates: (1,2,0)
Dest ID: 12 | Destination Sector: 0
outport_dirn: Down
##########################################################################
outportComputeNUChiplets()
Current Coordinates: (0,3,0)
Current ID: 6 | Current Sector: 0
Dest Coordinates: (1,2,1)
Dest ID: 13 | Destination Sector: 1
outport_dirn: East
##########################################################################
outportComputeNUChiplets()
Current Coordinates: (0,1,1)
Current ID: 3 | Current Sector: 1
Dest Coordinates: (1,2,0)
Dest ID: 12 | Destination Sector: 0
outport_dirn: West
##########################################################################
outportComputeNUChiplets()
Current Coordinates: (1,1,1)
Current ID: 11 | Current Sector: 1
Dest Coordinates: (1,0,1)
Dest ID: 9 | Destination Sector: 1
outport_dirn: South
##########################################################################
outportComputeNUChiplets()
Current Coordinates: (1,0,1)
Current ID: 9 | Current Sector: 1
Dest Coordinates: (1,2,1)
Dest ID: 13 | Destination Sector: 1
outport_dirn: North
##########################################################################
outportComputeNUChiplets()
Current Coordinates: (1,3,1)
Current ID: 15 | Current Sector: 1
Dest Coordinates: (1,1,1)
Dest ID: 11 | Destination Sector: 1
outport_dirn: South
##########################################################################
outportComputeNUChiplets()
Current Coordinates: (0,3,1)
Current ID: 7 | Current Sector: 1
Dest Coordinates: (1,2,1)
Dest ID: 13 | Destination Sector: 1
outport_dirn: South
##########################################################################
outportComputeNUChiplets()
Current Coordinates: (0,1,0)
Current ID: 2 | Current Sector: 0
Dest Coordinates: (1,2,0)
Dest ID: 12 | Destination Sector: 0
outport_dirn: North
##########################################################################
outportComputeNUChiplets()
Current Coordinates: (1,2,1)
Current ID: 13 | Current Sector: 1
Dest Coordinates: (1,1,1)
Dest ID: 11 | Destination Sector: 1
outport_dirn: South
##########################################################################
outportComputeNUChiplets()
Current Coordinates: (1,0,1)
Current ID: 9 | Current Sector: 1
Dest Coordinates: (1,3,1)
Dest ID: 15 | Destination Sector: 1
outport_dirn: North
##########################################################################
outportComputeNUChiplets()
Current Coordinates: (1,1,1)
Current ID: 11 | Current Sector: 1
Dest Coordinates: (1,0,0)
Dest ID: 8 | Destination Sector: 0
outport_dirn: Down
##########################################################################
outportComputeNUChiplets()
Current Coordinates: (1,1,1)
Current ID: 11 | Current Sector: 1
Dest Coordinates: (1,2,1)
Dest ID: 13 | Destination Sector: 1
outport_dirn: North
##########################################################################
outportComputeNUChiplets()
Current Coordinates: (1,2,0)
Current ID: 12 | Current Sector: 0
Dest Coordinates: (1,1,0)
Dest ID: 10 | Destination Sector: 0
outport_dirn: South
##########################################################################
outportComputeNUChiplets()
Current Coordinates: (1,0,0)
Current ID: 8 | Current Sector: 0
Dest Coordinates: (1,3,1)
Dest ID: 15 | Destination Sector: 1
outport_dirn: Down
##########################################################################
outportComputeNUChiplets()
Current Coordinates: (1,3,0)
Current ID: 14 | Current Sector: 0
Dest Coordinates: (1,1,1)
Dest ID: 11 | Destination Sector: 1
outport_dirn: Down
##########################################################################
outportComputeNUChiplets()
Current Coordinates: (0,2,1)
Current ID: 5 | Current Sector: 1
Dest Coordinates: (1,2,1)
Dest ID: 13 | Destination Sector: 1
outport_dirn: Up
##########################################################################
outportComputeNUChiplets()
Current Coordinates: (0,2,0)
Current ID: 4 | Current Sector: 0
Dest Coordinates: (1,2,0)
Dest ID: 12 | Destination Sector: 0
outport_dirn: Up
##########################################################################
outportComputeNUChiplets()
Current Coordinates: (1,1,1)
Current ID: 11 | Current Sector: 1
Dest Coordinates: (1,3,1)
Dest ID: 15 | Destination Sector: 1
outport_dirn: North
##########################################################################
outportComputeNUChiplets()
Current Coordinates: (0,1,1)
Current ID: 3 | Current Sector: 1
Dest Coordinates: (1,0,0)
Dest ID: 8 | Destination Sector: 0
outport_dirn: West
##########################################################################
outportComputeNUChiplets()
Current Coordinates: (0,0,0)
Current ID: 0 | Current Sector: 0
Dest Coordinates: (1,3,1)
Dest ID: 15 | Destination Sector: 1
outport_dirn: East
##########################################################################
outportComputeNUChiplets()
Current Coordinates: (1,0,0)
Current ID: 8 | Current Sector: 0
Dest Coordinates: (1,1,0)
Dest ID: 10 | Destination Sector: 0
outport_dirn: North
##########################################################################
outportComputeNUChiplets()
Current Coordinates: (1,0,1)
Current ID: 9 | Current Sector: 1
Dest Coordinates: (1,1,0)
Dest ID: 10 | Destination Sector: 0
outport_dirn: Down
##########################################################################
outportComputeNUChiplets()
Current Coordinates: (0,3,0)
Current ID: 6 | Current Sector: 0
Dest Coordinates: (1,1,1)
Dest ID: 11 | Destination Sector: 1
outport_dirn: East
##########################################################################
outportComputeNUChiplets()
Current Coordinates: (1,3,0)
Current ID: 14 | Current Sector: 0
Dest Coordinates: (1,2,0)
Dest ID: 12 | Destination Sector: 0
outport_dirn: South
##########################################################################
outportComputeNUChiplets()
Current Coordinates: (1,1,0)
Current ID: 10 | Current Sector: 0
Dest Coordinates: (1,3,1)
Dest ID: 15 | Destination Sector: 1
outport_dirn: Down
##########################################################################
outportComputeNUChiplets()
Current Coordinates: (0,1,0)
Current ID: 2 | Current Sector: 0
Dest Coordinates: (1,0,0)
Dest ID: 8 | Destination Sector: 0
outport_dirn: South
##########################################################################
outportComputeNUChiplets()
Current Coordinates: (0,0,1)
Current ID: 1 | Current Sector: 1
Dest Coordinates: (1,3,1)
Dest ID: 15 | Destination Sector: 1
outport_dirn: North
##########################################################################
outportComputeNUChiplets()
Current Coordinates: (0,0,1)
Current ID: 1 | Current Sector: 1
Dest Coordinates: (1,1,0)
Dest ID: 10 | Destination Sector: 0
outport_dirn: West
##########################################################################
outportComputeNUChiplets()
Current Coordinates: (1,0,1)
Current ID: 9 | Current Sector: 1
Dest Coordinates: (1,0,0)
Dest ID: 8 | Destination Sector: 0
outport_dirn: Down
##########################################################################
outportComputeNUChiplets()
Current Coordinates: (1,3,1)
Current ID: 15 | Current Sector: 1
Dest Coordinates: (1,2,0)
Dest ID: 12 | Destination Sector: 0
outport_dirn: Down
##########################################################################
outportComputeNUChiplets()
Current Coordinates: (1,2,1)
Current ID: 13 | Current Sector: 1
Dest Coordinates: (1,1,1)
Dest ID: 11 | Destination Sector: 1
outport_dirn: South
##########################################################################
outportComputeNUChiplets()
Current Coordinates: (1,2,1)
Current ID: 13 | Current Sector: 1
Dest Coordinates: (1,3,1)
Dest ID: 15 | Destination Sector: 1
outport_dirn: North
##########################################################################
outportComputeNUChiplets()
Current Coordinates: (1,2,0)
Current ID: 12 | Current Sector: 0
Dest Coordinates: (1,3,0)
Dest ID: 14 | Destination Sector: 0
outport_dirn: North
##########################################################################
outportComputeNUChiplets()
Current Coordinates: (0,3,1)
Current ID: 7 | Current Sector: 1
Dest Coordinates: (1,1,1)
Dest ID: 11 | Destination Sector: 1
outport_dirn: South
##########################################################################
outportComputeNUChiplets()
Current Coordinates: (0,3,1)
Current ID: 7 | Current Sector: 1
Dest Coordinates: (1,2,0)
Dest ID: 12 | Destination Sector: 0
outport_dirn: West
##########################################################################
outportComputeNUChiplets()
Current Coordinates: (1,3,0)
Current ID: 14 | Current Sector: 0
Dest Coordinates: (1,3,1)
Dest ID: 15 | Destination Sector: 1
outport_dirn: Down
##########################################################################
outportComputeNUChiplets()
Current Coordinates: (0,1,0)
Current ID: 2 | Current Sector: 0
Dest Coordinates: (1,3,1)
Dest ID: 15 | Destination Sector: 1
outport_dirn: East
##########################################################################
outportComputeNUChiplets()
Current Coordinates: (1,1,0)
Current ID: 10 | Current Sector: 0
Dest Coordinates: (1,3,1)
Dest ID: 15 | Destination Sector: 1
outport_dirn: Down
##########################################################################
outportComputeNUChiplets()
Current Coordinates: (0,1,1)
Current ID: 3 | Current Sector: 1
Dest Coordinates: (1,3,1)
Dest ID: 15 | Destination Sector: 1
outport_dirn: North
##########################################################################
outportComputeNUChiplets()
Current Coordinates: (0,0,0)
Current ID: 0 | Current Sector: 0
Dest Coordinates: (1,1,0)
Dest ID: 10 | Destination Sector: 0
outport_dirn: North
##########################################################################
outportComputeNUChiplets()
Current Coordinates: (0,0,0)
Current ID: 0 | Current Sector: 0
Dest Coordinates: (1,0,0)
Dest ID: 8 | Destination Sector: 0
outport_dirn: Up
##########################################################################
outportComputeNUChiplets()
Current Coordinates: (0,0,1)
Current ID: 1 | Current Sector: 1
Dest Coordinates: (1,0,0)
Dest ID: 8 | Destination Sector: 0
outport_dirn: West
##########################################################################
outportComputeNUChiplets()
Current Coordinates: (1,0,1)
Current ID: 9 | Current Sector: 1
Dest Coordinates: (1,0,0)
Dest ID: 8 | Destination Sector: 0
outport_dirn: Down
##########################################################################
outportComputeNUChiplets()
Current Coordinates: (1,2,1)
Current ID: 13 | Current Sector: 1
Dest Coordinates: (1,3,0)
Dest ID: 14 | Destination Sector: 0
outport_dirn: Down
##########################################################################
outportComputeNUChiplets()
Current Coordinates: (1,3,1)
Current ID: 15 | Current Sector: 1
Dest Coordinates: (1,1,1)
Dest ID: 11 | Destination Sector: 1
outport_dirn: South
##########################################################################
outportComputeNUChiplets()
Current Coordinates: (1,1,1)
Current ID: 11 | Current Sector: 1
Dest Coordinates: (1,2,1)
Dest ID: 13 | Destination Sector: 1
outport_dirn: North
##########################################################################
outportComputeNUChiplets()
Current Coordinates: (0,3,0)
Current ID: 6 | Current Sector: 0
Dest Coordinates: (1,2,0)
Dest ID: 12 | Destination Sector: 0
outport_dirn: South
##########################################################################
outportComputeNUChiplets()
Current Coordinates: (0,3,0)
Current ID: 6 | Current Sector: 0
Dest Coordinates: (1,3,1)
Dest ID: 15 | Destination Sector: 1
outport_dirn: East
##########################################################################
outportComputeNUChiplets()
Current Coordinates: (0,2,1)
Current ID: 5 | Current Sector: 1
Dest Coordinates: (1,3,1)
Dest ID: 15 | Destination Sector: 1
outport_dirn: North
##########################################################################
outportComputeNUChiplets()
Current Coordinates: (0,2,1)
Current ID: 5 | Current Sector: 1
Dest Coordinates: (1,1,1)
Dest ID: 11 | Destination Sector: 1
outport_dirn: South
##########################################################################
outportComputeNUChiplets()
Current Coordinates: (0,2,1)
Current ID: 5 | Current Sector: 1
Dest Coordinates: (1,3,0)
Dest ID: 14 | Destination Sector: 0
outport_dirn: West
##########################################################################
outportComputeNUChiplets()
Current Coordinates: (1,3,0)
Current ID: 14 | Current Sector: 0
Dest Coordinates: (1,0,0)
Dest ID: 8 | Destination Sector: 0
outport_dirn: South
##########################################################################
outportComputeNUChiplets()
Current Coordinates: (0,1,1)
Current ID: 3 | Current Sector: 1
Dest Coordinates: (1,3,1)
Dest ID: 15 | Destination Sector: 1
outport_dirn: North
##########################################################################
outportComputeNUChiplets()
Current Coordinates: (0,1,0)
Current ID: 2 | Current Sector: 0
Dest Coordinates: (1,1,0)
Dest ID: 10 | Destination Sector: 0
outport_dirn: Up
##########################################################################
outportComputeNUChiplets()
Current Coordinates: (0,0,0)
Current ID: 0 | Current Sector: 0
Dest Coordinates: (1,0,0)
Dest ID: 8 | Destination Sector: 0
outport_dirn: Up
##########################################################################
outportComputeNUChiplets()
Current Coordinates: (1,2,1)
Current ID: 13 | Current Sector: 1
Dest Coordinates: (1,1,1)
Dest ID: 11 | Destination Sector: 1
outport_dirn: South
##########################################################################
outportComputeNUChiplets()
Current Coordinates: (1,3,1)
Current ID: 15 | Current Sector: 1
Dest Coordinates: (1,2,0)
Dest ID: 12 | Destination Sector: 0
outport_dirn: Down
##########################################################################
outportComputeNUChiplets()
Current Coordinates: (0,1,1)
Current ID: 3 | Current Sector: 1
Dest Coordinates: (1,1,1)
Dest ID: 11 | Destination Sector: 1
outport_dirn: Up
##########################################################################
outportComputeNUChiplets()
Current Coordinates: (0,2,0)
Current ID: 4 | Current Sector: 0
Dest Coordinates: (1,3,0)
Dest ID: 14 | Destination Sector: 0
outport_dirn: North
##########################################################################
outportComputeNUChiplets()
Current Coordinates: (0,2,0)
Current ID: 4 | Current Sector: 0
Dest Coordinates: (1,2,0)
Dest ID: 12 | Destination Sector: 0
outport_dirn: Up
##########################################################################
outportComputeNUChiplets()
Current Coordinates: (0,3,1)
Current ID: 7 | Current Sector: 1
Dest Coordinates: (1,3,1)
Dest ID: 15 | Destination Sector: 1
outport_dirn: Up
##########################################################################
outportComputeNUChiplets()
Current Coordinates: (0,3,1)
Current ID: 7 | Current Sector: 1
Dest Coordinates: (1,3,1)
Dest ID: 15 | Destination Sector: 1
outport_dirn: Up
##########################################################################
outportComputeNUChiplets()
Current Coordinates: (0,3,1)
Current ID: 7 | Current Sector: 1
Dest Coordinates: (1,2,0)
Dest ID: 12 | Destination Sector: 0
outport_dirn: West
##########################################################################
outportComputeNUChiplets()
Current Coordinates: (1,2,0)
Current ID: 12 | Current Sector: 0
Dest Coordinates: (1,0,0)
Dest ID: 8 | Destination Sector: 0
outport_dirn: South
##########################################################################
outportComputeNUChiplets()
Current Coordinates: (0,2,1)
Current ID: 5 | Current Sector: 1
Dest Coordinates: (1,3,1)
Dest ID: 15 | Destination Sector: 1
outport_dirn: North
##########################################################################
outportComputeNUChiplets()
Current Coordinates: (1,3,1)
Current ID: 15 | Current Sector: 1
Dest Coordinates: (1,3,0)
Dest ID: 14 | Destination Sector: 0
outport_dirn: Down
##########################################################################
outportComputeNUChiplets()
Current Coordinates: (1,2,1)
Current ID: 13 | Current Sector: 1
Dest Coordinates: (1,0,0)
Dest ID: 8 | Destination Sector: 0
outport_dirn: Down
##########################################################################
outportComputeNUChiplets()
Current Coordinates: (0,3,1)
Current ID: 7 | Current Sector: 1
Dest Coordinates: (1,3,1)
Dest ID: 15 | Destination Sector: 1
outport_dirn: Up
##########################################################################
outportComputeNUChiplets()
Current Coordinates: (0,3,0)
Current ID: 6 | Current Sector: 0
Dest Coordinates: (1,3,0)
Dest ID: 14 | Destination Sector: 0
outport_dirn: Up
##########################################################################
outportComputeNUChiplets()
Current Coordinates: (0,3,0)
Current ID: 6 | Current Sector: 0
Dest Coordinates: (1,2,0)
Dest ID: 12 | Destination Sector: 0
outport_dirn: South
##########################################################################
outportComputeNUChiplets()
Current Coordinates: (1,1,0)
Current ID: 10 | Current Sector: 0
Dest Coordinates: (1,0,0)
Dest ID: 8 | Destination Sector: 0
outport_dirn: South
##########################################################################
outportComputeNUChiplets()
Current Coordinates: (1,1,1)
Current ID: 11 | Current Sector: 1
Dest Coordinates: (1,1,0)
Dest ID: 10 | Destination Sector: 0
outport_dirn: Down
##########################################################################
outportComputeNUChiplets()
Current Coordinates: (1,2,0)
Current ID: 12 | Current Sector: 0
Dest Coordinates: (1,1,0)
Dest ID: 10 | Destination Sector: 0
outport_dirn: South
##########################################################################
outportComputeNUChiplets()
Current Coordinates: (1,0,0)
Current ID: 8 | Current Sector: 0
Dest Coordinates: (1,3,1)
Dest ID: 15 | Destination Sector: 1
outport_dirn: Down
##########################################################################
outportComputeNUChiplets()
Current Coordinates: (1,3,1)
Current ID: 15 | Current Sector: 1
Dest Coordinates: (1,2,1)
Dest ID: 13 | Destination Sector: 1
outport_dirn: South
##########################################################################
outportComputeNUChiplets()
Current Coordinates: (1,1,0)
Current ID: 10 | Current Sector: 0
Dest Coordinates: (1,0,0)
Dest ID: 8 | Destination Sector: 0
outport_dirn: South
##########################################################################
outportComputeNUChiplets()
Current Coordinates: (1,3,0)
Current ID: 14 | Current Sector: 0
Dest Coordinates: (1,2,0)
Dest ID: 12 | Destination Sector: 0
outport_dirn: South
##########################################################################
outportComputeNUChiplets()
Current Coordinates: (0,0,0)
Current ID: 0 | Current Sector: 0
Dest Coordinates: (1,3,1)
Dest ID: 15 | Destination Sector: 1
outport_dirn: East
##########################################################################
outportComputeNUChiplets()
Current Coordinates: (0,1,1)
Current ID: 3 | Current Sector: 1
Dest Coordinates: (1,1,0)
Dest ID: 10 | Destination Sector: 0
outport_dirn: West
##########################################################################
outportComputeNUChiplets()
Current Coordinates: (1,1,1)
Current ID: 11 | Current Sector: 1
Dest Coordinates: (1,2,1)
Dest ID: 13 | Destination Sector: 1
outport_dirn: North
##########################################################################
outportComputeNUChiplets()
Current Coordinates: (1,3,1)
Current ID: 15 | Current Sector: 1
Dest Coordinates: (1,2,1)
Dest ID: 13 | Destination Sector: 1
outport_dirn: South
##########################################################################
outportComputeNUChiplets()
Current Coordinates: (0,2,0)
Current ID: 4 | Current Sector: 0
Dest Coordinates: (1,2,0)
Dest ID: 12 | Destination Sector: 0
outport_dirn: Up
##########################################################################
outportComputeNUChiplets()
Current Coordinates: (1,0,0)
Current ID: 8 | Current Sector: 0
Dest Coordinates: (1,2,1)
Dest ID: 13 | Destination Sector: 1
outport_dirn: Down
##########################################################################
outportComputeNUChiplets()
Current Coordinates: (0,0,1)
Current ID: 1 | Current Sector: 1
Dest Coordinates: (1,0,0)
Dest ID: 8 | Destination Sector: 0
outport_dirn: West
##########################################################################
outportComputeNUChiplets()
Current Coordinates: (0,1,0)
Current ID: 2 | Current Sector: 0
Dest Coordinates: (1,1,0)
Dest ID: 10 | Destination Sector: 0
outport_dirn: Up
##########################################################################
outportComputeNUChiplets()
Current Coordinates: (0,0,1)
Current ID: 1 | Current Sector: 1
Dest Coordinates: (1,3,1)
Dest ID: 15 | Destination Sector: 1
outport_dirn: North
##########################################################################
outportComputeNUChiplets()
Current Coordinates: (0,1,0)
Current ID: 2 | Current Sector: 0
Dest Coordinates: (1,3,1)
Dest ID: 15 | Destination Sector: 1
outport_dirn: East
##########################################################################
outportComputeNUChiplets()
Current Coordinates: (0,0,0)
Current ID: 0 | Current Sector: 0
Dest Coordinates: (1,0,0)
Dest ID: 8 | Destination Sector: 0
outport_dirn: Up
##########################################################################
outportComputeNUChiplets()
Current Coordinates: (0,1,1)
Current ID: 3 | Current Sector: 1
Dest Coordinates: (1,3,1)
Dest ID: 15 | Destination Sector: 1
outport_dirn: North
##########################################################################
outportComputeNUChiplets()
Current Coordinates: (1,0,1)
Current ID: 9 | Current Sector: 1
Dest Coordinates: (1,3,0)
Dest ID: 14 | Destination Sector: 0
outport_dirn: Down
##########################################################################
outportComputeNUChiplets()
Current Coordinates: (1,2,0)
Current ID: 12 | Current Sector: 0
Dest Coordinates: (1,2,1)
Dest ID: 13 | Destination Sector: 1
outport_dirn: Down
##########################################################################
outportComputeNUChiplets()
Current Coordinates: (1,1,1)
Current ID: 11 | Current Sector: 1
Dest Coordinates: (1,3,0)
Dest ID: 14 | Destination Sector: 0
outport_dirn: Down
##########################################################################
outportComputeNUChiplets()
Current Coordinates: (1,3,0)
Current ID: 14 | Current Sector: 0
Dest Coordinates: (1,0,1)
Dest ID: 9 | Destination Sector: 1
outport_dirn: Down
##########################################################################
outportComputeNUChiplets()
Current Coordinates: (0,1,1)
Current ID: 3 | Current Sector: 1
Dest Coordinates: (1,3,1)
Dest ID: 15 | Destination Sector: 1
outport_dirn: North
##########################################################################
outportComputeNUChiplets()
Current Coordinates: (0,3,0)
Current ID: 6 | Current Sector: 0
Dest Coordinates: (1,0,1)
Dest ID: 9 | Destination Sector: 1
outport_dirn: East
##########################################################################
outportComputeNUChiplets()
Current Coordinates: (0,1,1)
Current ID: 3 | Current Sector: 1
Dest Coordinates: (1,3,0)
Dest ID: 14 | Destination Sector: 0
outport_dirn: West
##########################################################################
outportComputeNUChiplets()
Current Coordinates: (0,0,1)
Current ID: 1 | Current Sector: 1
Dest Coordinates: (1,3,0)
Dest ID: 14 | Destination Sector: 0
outport_dirn: West
##########################################################################
outportComputeNUChiplets()
Current Coordinates: (1,1,0)
Current ID: 10 | Current Sector: 0
Dest Coordinates: (1,2,0)
Dest ID: 12 | Destination Sector: 0
outport_dirn: North
##########################################################################
outportComputeNUChiplets()
Current Coordinates: (0,2,1)
Current ID: 5 | Current Sector: 1
Dest Coordinates: (1,3,1)
Dest ID: 15 | Destination Sector: 1
outport_dirn: North
##########################################################################
outportComputeNUChiplets()
Current Coordinates: (1,2,1)
Current ID: 13 | Current Sector: 1
Dest Coordinates: (1,1,0)
Dest ID: 10 | Destination Sector: 0
outport_dirn: Down
##########################################################################
outportComputeNUChiplets()
Current Coordinates: (0,2,0)
Current ID: 4 | Current Sector: 0
Dest Coordinates: (1,2,1)
Dest ID: 13 | Destination Sector: 1
outport_dirn: East
##########################################################################
outportComputeNUChiplets()
Current Coordinates: (0,3,1)
Current ID: 7 | Current Sector: 1
Dest Coordinates: (1,3,1)
Dest ID: 15 | Destination Sector: 1
outport_dirn: Up
##########################################################################
outportComputeNUChiplets()
Current Coordinates: (0,3,1)
Current ID: 7 | Current Sector: 1
Dest Coordinates: (1,0,1)
Dest ID: 9 | Destination Sector: 1
outport_dirn: South
##########################################################################
outportComputeNUChiplets()
Current Coordinates: (1,3,0)
Current ID: 14 | Current Sector: 0
Dest Coordinates: (1,1,0)
Dest ID: 10 | Destination Sector: 0
outport_dirn: South
##########################################################################
outportComputeNUChiplets()
Current Coordinates: (0,1,0)
Current ID: 2 | Current Sector: 0
Dest Coordinates: (1,3,0)
Dest ID: 14 | Destination Sector: 0
outport_dirn: North
##########################################################################
outportComputeNUChiplets()
Current Coordinates: (0,0,0)
Current ID: 0 | Current Sector: 0
Dest Coordinates: (1,3,0)
Dest ID: 14 | Destination Sector: 0
outport_dirn: North
##########################################################################
outportComputeNUChiplets()
Current Coordinates: (0,2,1)
Current ID: 5 | Current Sector: 1
Dest Coordinates: (1,2,1)
Dest ID: 13 | Destination Sector: 1
outport_dirn: Up
##########################################################################
outportComputeNUChiplets()
Current Coordinates: (0,2,1)
Current ID: 5 | Current Sector: 1
Dest Coordinates: (1,1,0)
Dest ID: 10 | Destination Sector: 0
outport_dirn: West
##########################################################################
outportComputeNUChiplets()
Current Coordinates: (1,2,1)
Current ID: 13 | Current Sector: 1
Dest Coordinates: (1,1,0)
Dest ID: 10 | Destination Sector: 0
outport_dirn: Down
##########################################################################
outportComputeNUChiplets()
Current Coordinates: (1,1,1)
Current ID: 11 | Current Sector: 1
Dest Coordinates: (1,1,0)
Dest ID: 10 | Destination Sector: 0
outport_dirn: Down
##########################################################################
outportComputeNUChiplets()
Current Coordinates: (0,2,1)
Current ID: 5 | Current Sector: 1
Dest Coordinates: (1,0,0)
Dest ID: 8 | Destination Sector: 0
outport_dirn: West
##########################################################################
outportComputeNUChiplets()
Current Coordinates: (0,1,1)
Current ID: 3 | Current Sector: 1
Dest Coordinates: (1,1,0)
Dest ID: 10 | Destination Sector: 0
outport_dirn: West
##########################################################################
outportComputeNUChiplets()
Current Coordinates: (1,0,1)
Current ID: 9 | Current Sector: 1
Dest Coordinates: (1,1,0)
Dest ID: 10 | Destination Sector: 0
outport_dirn: Down
##########################################################################
outportComputeNUChiplets()
Current Coordinates: (0,1,0)
Current ID: 2 | Current Sector: 0
Dest Coordinates: (1,3,0)
Dest ID: 14 | Destination Sector: 0
outport_dirn: North
##########################################################################
outportComputeNUChiplets()
Current Coordinates: (0,2,0)
Current ID: 4 | Current Sector: 0
Dest Coordinates: (1,3,0)
Dest ID: 14 | Destination Sector: 0
outport_dirn: North
##########################################################################
outportComputeNUChiplets()
Current Coordinates: (0,2,0)
Current ID: 4 | Current Sector: 0
Dest Coordinates: (1,1,0)
Dest ID: 10 | Destination Sector: 0
outport_dirn: South
##########################################################################
outportComputeNUChiplets()
Current Coordinates: (0,2,1)
Current ID: 5 | Current Sector: 1
Dest Coordinates: (1,0,1)
Dest ID: 9 | Destination Sector: 1
outport_dirn: South
##########################################################################
outportComputeNUChiplets()
Current Coordinates: (1,2,1)
Current ID: 13 | Current Sector: 1
Dest Coordinates: (1,0,1)
Dest ID: 9 | Destination Sector: 1
outport_dirn: South
##########################################################################
outportComputeNUChiplets()
Current Coordinates: (1,3,1)
Current ID: 15 | Current Sector: 1
Dest Coordinates: (1,0,1)
Dest ID: 9 | Destination Sector: 1
outport_dirn: South
##########################################################################
outportComputeNUChiplets()
Current Coordinates: (1,2,0)
Current ID: 12 | Current Sector: 0
Dest Coordinates: (1,0,0)
Dest ID: 8 | Destination Sector: 0
outport_dirn: South
##########################################################################
outportComputeNUChiplets()
Current Coordinates: (1,2,0)
Current ID: 12 | Current Sector: 0
Dest Coordinates: (1,1,0)
Dest ID: 10 | Destination Sector: 0
outport_dirn: South
##########################################################################
outportComputeNUChiplets()
Current Coordinates: (1,3,0)
Current ID: 14 | Current Sector: 0
Dest Coordinates: (1,3,1)
Dest ID: 15 | Destination Sector: 1
outport_dirn: Down
##########################################################################
outportComputeNUChiplets()
Current Coordinates: (1,3,1)
Current ID: 15 | Current Sector: 1
Dest Coordinates: (1,2,1)
Dest ID: 13 | Destination Sector: 1
outport_dirn: South
##########################################################################
outportComputeNUChiplets()
Current Coordinates: (0,2,1)
Current ID: 5 | Current Sector: 1
Dest Coordinates: (1,3,1)
Dest ID: 15 | Destination Sector: 1
outport_dirn: North
##########################################################################
outportComputeNUChiplets()
Current Coordinates: (0,2,0)
Current ID: 4 | Current Sector: 0
Dest Coordinates: (1,0,0)
Dest ID: 8 | Destination Sector: 0
outport_dirn: South
##########################################################################
outportComputeNUChiplets()
Current Coordinates: (0,1,1)
Current ID: 3 | Current Sector: 1
Dest Coordinates: (1,0,1)
Dest ID: 9 | Destination Sector: 1
outport_dirn: South
##########################################################################
outportComputeNUChiplets()
Current Coordinates: (0,0,1)
Current ID: 1 | Current Sector: 1
Dest Coordinates: (1,1,0)
Dest ID: 10 | Destination Sector: 0
outport_dirn: West
##########################################################################
outportComputeNUChiplets()
Current Coordinates: (0,1,0)
Current ID: 2 | Current Sector: 0
Dest Coordinates: (1,1,0)
Dest ID: 10 | Destination Sector: 0
outport_dirn: Up
##########################################################################
outportComputeNUChiplets()
Current Coordinates: (0,1,0)
Current ID: 2 | Current Sector: 0
Dest Coordinates: (1,1,0)
Dest ID: 10 | Destination Sector: 0
outport_dirn: Up
##########################################################################
outportComputeNUChiplets()
Current Coordinates: (0,2,0)
Current ID: 4 | Current Sector: 0
Dest Coordinates: (1,3,0)
Dest ID: 14 | Destination Sector: 0
outport_dirn: North
##########################################################################
outportComputeNUChiplets()
Current Coordinates: (1,2,1)
Current ID: 13 | Current Sector: 1
Dest Coordinates: (1,0,1)
Dest ID: 9 | Destination Sector: 1
outport_dirn: South
##########################################################################
outportComputeNUChiplets()
Current Coordinates: (1,2,0)
Current ID: 12 | Current Sector: 0
Dest Coordinates: (1,3,1)
Dest ID: 15 | Destination Sector: 1
outport_dirn: Down
##########################################################################
outportComputeNUChiplets()
Current Coordinates: (0,0,0)
Current ID: 0 | Current Sector: 0
Dest Coordinates: (1,2,1)
Dest ID: 13 | Destination Sector: 1
outport_dirn: East
##########################################################################
outportComputeNUChiplets()
Current Coordinates: (1,1,1)
Current ID: 11 | Current Sector: 1
Dest Coordinates: (1,1,0)
Dest ID: 10 | Destination Sector: 0
outport_dirn: Down
##########################################################################
outportComputeNUChiplets()
Current Coordinates: (1,1,1)
Current ID: 11 | Current Sector: 1
Dest Coordinates: (1,0,1)
Dest ID: 9 | Destination Sector: 1
outport_dirn: South
##########################################################################
outportComputeNUChiplets()
Current Coordinates: (0,3,0)
Current ID: 6 | Current Sector: 0
Dest Coordinates: (1,3,0)
Dest ID: 14 | Destination Sector: 0
outport_dirn: Up
##########################################################################
outportComputeNUChiplets()
Current Coordinates: (0,3,0)
Current ID: 6 | Current Sector: 0
Dest Coordinates: (1,3,1)
Dest ID: 15 | Destination Sector: 1
outport_dirn: East
##########################################################################
outportComputeNUChiplets()
Current Coordinates: (1,3,0)
Current ID: 14 | Current Sector: 0
Dest Coordinates: (1,1,1)
Dest ID: 11 | Destination Sector: 1
outport_dirn: Down
##########################################################################
outportComputeNUChiplets()
Current Coordinates: (1,0,1)
Current ID: 9 | Current Sector: 1
Dest Coordinates: (1,2,0)
Dest ID: 12 | Destination Sector: 0
outport_dirn: Down
##########################################################################
outportComputeNUChiplets()
Current Coordinates: (1,1,0)
Current ID: 10 | Current Sector: 0
Dest Coordinates: (1,0,0)
Dest ID: 8 | Destination Sector: 0
outport_dirn: South
##########################################################################
outportComputeNUChiplets()
Current Coordinates: (0,1,0)
Current ID: 2 | Current Sector: 0
Dest Coordinates: (1,0,0)
Dest ID: 8 | Destination Sector: 0
outport_dirn: South
##########################################################################
outportComputeNUChiplets()
Current Coordinates: (0,3,1)
Current ID: 7 | Current Sector: 1
Dest Coordinates: (1,3,1)
Dest ID: 15 | Destination Sector: 1
outport_dirn: Up
##########################################################################
outportComputeNUChiplets()
Current Coordinates: (0,3,1)
Current ID: 7 | Current Sector: 1
Dest Coordinates: (1,3,0)
Dest ID: 14 | Destination Sector: 0
outport_dirn: West
##########################################################################
outportComputeNUChiplets()
Current Coordinates: (0,3,1)
Current ID: 7 | Current Sector: 1
Dest Coordinates: (1,3,1)
Dest ID: 15 | Destination Sector: 1
outport_dirn: Up
##########################################################################
outportComputeNUChiplets()
Current Coordinates: (0,1,1)
Current ID: 3 | Current Sector: 1
Dest Coordinates: (1,1,0)
Dest ID: 10 | Destination Sector: 0
outport_dirn: West
##########################################################################
outportComputeNUChiplets()
Current Coordinates: (0,2,0)
Current ID: 4 | Current Sector: 0
Dest Coordinates: (1,3,1)
Dest ID: 15 | Destination Sector: 1
outport_dirn: East
##########################################################################
outportComputeNUChiplets()
Current Coordinates: (1,2,1)
Current ID: 13 | Current Sector: 1
Dest Coordinates: (1,3,1)
Dest ID: 15 | Destination Sector: 1
outport_dirn: North
##########################################################################
outportComputeNUChiplets()
Current Coordinates: (1,3,1)
Current ID: 15 | Current Sector: 1
Dest Coordinates: (1,2,0)
Dest ID: 12 | Destination Sector: 0
outport_dirn: Down
##########################################################################
outportComputeNUChiplets()
Current Coordinates: (1,1,0)
Current ID: 10 | Current Sector: 0
Dest Coordinates: (1,2,1)
Dest ID: 13 | Destination Sector: 1
outport_dirn: Down
##########################################################################
outportComputeNUChiplets()
Current Coordinates: (1,0,0)
Current ID: 8 | Current Sector: 0
Dest Coordinates: (1,3,0)
Dest ID: 14 | Destination Sector: 0
outport_dirn: North
##########################################################################
outportComputeNUChiplets()
Current Coordinates: (0,0,0)
Current ID: 0 | Current Sector: 0
Dest Coordinates: (1,1,0)
Dest ID: 10 | Destination Sector: 0
outport_dirn: North
##########################################################################
outportComputeNUChiplets()
Current Coordinates: (1,1,1)
Current ID: 11 | Current Sector: 1
Dest Coordinates: (1,3,0)
Dest ID: 14 | Destination Sector: 0
outport_dirn: Down
##########################################################################
outportComputeNUChiplets()
Current Coordinates: (0,3,0)
Current ID: 6 | Current Sector: 0
Dest Coordinates: (1,3,0)
Dest ID: 14 | Destination Sector: 0
outport_dirn: Up
##########################################################################
outportComputeNUChiplets()
Current Coordinates: (0,3,0)
Current ID: 6 | Current Sector: 0
Dest Coordinates: (1,1,1)
Dest ID: 11 | Destination Sector: 1
outport_dirn: East
##########################################################################
outportComputeNUChiplets()
Current Coordinates: (0,0,1)
Current ID: 1 | Current Sector: 1
Dest Coordinates: (1,2,1)
Dest ID: 13 | Destination Sector: 1
outport_dirn: North
##########################################################################
outportComputeNUChiplets()
Current Coordinates: (0,0,1)
Current ID: 1 | Current Sector: 1
Dest Coordinates: (1,0,1)
Dest ID: 9 | Destination Sector: 1
outport_dirn: Up
##########################################################################
outportComputeNUChiplets()
Current Coordinates: (0,0,1)
Current ID: 1 | Current Sector: 1
Dest Coordinates: (1,2,0)
Dest ID: 12 | Destination Sector: 0
outport_dirn: West
##########################################################################
outportComputeNUChiplets()
Current Coordinates: (1,0,1)
Current ID: 9 | Current Sector: 1
Dest Coordinates: (1,0,0)
Dest ID: 8 | Destination Sector: 0
outport_dirn: Down
##########################################################################
outportComputeNUChiplets()
Current Coordinates: (0,3,0)
Current ID: 6 | Current Sector: 0
Dest Coordinates: (1,3,0)
Dest ID: 14 | Destination Sector: 0
outport_dirn: Up
##########################################################################
outportComputeNUChiplets()
Current Coordinates: (1,1,1)
Current ID: 11 | Current Sector: 1
Dest Coordinates: (1,0,1)
Dest ID: 9 | Destination Sector: 1
outport_dirn: South
##########################################################################
outportComputeNUChiplets()
Current Coordinates: (0,0,0)
Current ID: 0 | Current Sector: 0
Dest Coordinates: (1,0,0)
Dest ID: 8 | Destination Sector: 0
outport_dirn: Up
##########################################################################
outportComputeNUChiplets()
Current Coordinates: (0,3,1)
Current ID: 7 | Current Sector: 1
Dest Coordinates: (1,1,1)
Dest ID: 11 | Destination Sector: 1
outport_dirn: South
##########################################################################
outportComputeNUChiplets()
Current Coordinates: (0,3,1)
Current ID: 7 | Current Sector: 1
Dest Coordinates: (1,2,0)
Dest ID: 12 | Destination Sector: 0
outport_dirn: West
##########################################################################
outportComputeNUChiplets()
Current Coordinates: (0,1,1)
Current ID: 3 | Current Sector: 1
Dest Coordinates: (1,2,1)
Dest ID: 13 | Destination Sector: 1
outport_dirn: North
##########################################################################
outportComputeNUChiplets()
Current Coordinates: (0,1,0)
Current ID: 2 | Current Sector: 0
Dest Coordinates: (1,1,0)
Dest ID: 10 | Destination Sector: 0
outport_dirn: Up
##########################################################################
outportComputeNUChiplets()
Current Coordinates: (0,1,0)
Current ID: 2 | Current Sector: 0
Dest Coordinates: (1,1,0)
Dest ID: 10 | Destination Sector: 0
outport_dirn: Up
##########################################################################
outportComputeNUChiplets()
Current Coordinates: (0,1,0)
Current ID: 2 | Current Sector: 0
Dest Coordinates: (1,2,1)
Dest ID: 13 | Destination Sector: 1
outport_dirn: East
##########################################################################
outportComputeNUChiplets()
Current Coordinates: (0,2,1)
Current ID: 5 | Current Sector: 1
Dest Coordinates: (1,3,1)
Dest ID: 15 | Destination Sector: 1
outport_dirn: North
##########################################################################
outportComputeNUChiplets()
Current Coordinates: (1,1,0)
Current ID: 10 | Current Sector: 0
Dest Coordinates: (1,3,0)
Dest ID: 14 | Destination Sector: 0
outport_dirn: North
##########################################################################
outportComputeNUChiplets()
Current Coordinates: (0,0,0)
Current ID: 0 | Current Sector: 0
Dest Coordinates: (1,2,0)
Dest ID: 12 | Destination Sector: 0
outport_dirn: North
##########################################################################
outportComputeNUChiplets()
Current Coordinates: (1,1,1)
Current ID: 11 | Current Sector: 1
Dest Coordinates: (1,0,1)
Dest ID: 9 | Destination Sector: 1
outport_dirn: South
##########################################################################
outportComputeNUChiplets()
Current Coordinates: (1,0,0)
Current ID: 8 | Current Sector: 0
Dest Coordinates: (1,3,0)
Dest ID: 14 | Destination Sector: 0
outport_dirn: North
##########################################################################
outportComputeNUChiplets()
Current Coordinates: (0,3,1)
Current ID: 7 | Current Sector: 1
Dest Coordinates: (1,3,1)
Dest ID: 15 | Destination Sector: 1
outport_dirn: Up
##########################################################################
outportComputeNUChiplets()
Current Coordinates: (0,1,1)
Current ID: 3 | Current Sector: 1
Dest Coordinates: (1,2,1)
Dest ID: 13 | Destination Sector: 1
outport_dirn: North
##########################################################################
outportComputeNUChiplets()
Current Coordinates: (0,1,0)
Current ID: 2 | Current Sector: 0
Dest Coordinates: (1,2,0)
Dest ID: 12 | Destination Sector: 0
outport_dirn: North
##########################################################################
outportComputeNUChiplets()
Current Coordinates: (0,2,1)
Current ID: 5 | Current Sector: 1
Dest Coordinates: (1,1,1)
Dest ID: 11 | Destination Sector: 1
outport_dirn: South
##########################################################################
outportComputeNUChiplets()
Current Coordinates: (0,2,1)
Current ID: 5 | Current Sector: 1
Dest Coordinates: (1,1,0)
Dest ID: 10 | Destination Sector: 0
outport_dirn: West
##########################################################################
outportComputeNUChiplets()
Current Coordinates: (1,1,0)
Current ID: 10 | Current Sector: 0
Dest Coordinates: (1,3,0)
Dest ID: 14 | Destination Sector: 0
outport_dirn: North
##########################################################################
outportComputeNUChiplets()
Current Coordinates: (1,2,0)
Current ID: 12 | Current Sector: 0
Dest Coordinates: (1,3,0)
Dest ID: 14 | Destination Sector: 0
outport_dirn: North
##########################################################################
outportComputeNUChiplets()
Current Coordinates: (0,3,0)
Current ID: 6 | Current Sector: 0
Dest Coordinates: (1,2,0)
Dest ID: 12 | Destination Sector: 0
outport_dirn: South
##########################################################################
outportComputeNUChiplets()
Current Coordinates: (1,3,0)
Current ID: 14 | Current Sector: 0
Dest Coordinates: (1,0,0)
Dest ID: 8 | Destination Sector: 0
outport_dirn: South
##########################################################################
outportComputeNUChiplets()
Current Coordinates: (1,0,1)
Current ID: 9 | Current Sector: 1
Dest Coordinates: (1,1,0)
Dest ID: 10 | Destination Sector: 0
outport_dirn: Down
##########################################################################
outportComputeNUChiplets()
Current Coordinates: (1,3,1)
Current ID: 15 | Current Sector: 1
Dest Coordinates: (1,3,0)
Dest ID: 14 | Destination Sector: 0
outport_dirn: Down
##########################################################################
outportComputeNUChiplets()
Current Coordinates: (0,2,1)
Current ID: 5 | Current Sector: 1
Dest Coordinates: (1,2,1)
Dest ID: 13 | Destination Sector: 1
outport_dirn: Up
##########################################################################
outportComputeNUChiplets()
Current Coordinates: (0,1,1)
Current ID: 3 | Current Sector: 1
Dest Coordinates: (1,3,0)
Dest ID: 14 | Destination Sector: 0
outport_dirn: West
##########################################################################
outportComputeNUChiplets()
Current Coordinates: (0,1,1)
Current ID: 3 | Current Sector: 1
Dest Coordinates: (1,1,1)
Dest ID: 11 | Destination Sector: 1
outport_dirn: Up
##########################################################################
outportComputeNUChiplets()
Current Coordinates: (0,2,0)
Current ID: 4 | Current Sector: 0
Dest Coordinates: (1,2,0)
Dest ID: 12 | Destination Sector: 0
outport_dirn: Up
##########################################################################
outportComputeNUChiplets()
Current Coordinates: (0,2,0)
Current ID: 4 | Current Sector: 0
Dest Coordinates: (1,1,0)
Dest ID: 10 | Destination Sector: 0
outport_dirn: South
##########################################################################
outportComputeNUChiplets()
Current Coordinates: (0,2,0)
Current ID: 4 | Current Sector: 0
Dest Coordinates: (1,2,0)
Dest ID: 12 | Destination Sector: 0
outport_dirn: Up
##########################################################################
outportComputeNUChiplets()
Current Coordinates: (0,2,1)
Current ID: 5 | Current Sector: 1
Dest Coordinates: (1,2,1)
Dest ID: 13 | Destination Sector: 1
outport_dirn: Up
##########################################################################
outportComputeNUChiplets()
Current Coordinates: (1,2,1)
Current ID: 13 | Current Sector: 1
Dest Coordinates: (1,1,0)
Dest ID: 10 | Destination Sector: 0
outport_dirn: Down
##########################################################################
outportComputeNUChiplets()
Current Coordinates: (1,3,1)
Current ID: 15 | Current Sector: 1
Dest Coordinates: (1,3,0)
Dest ID: 14 | Destination Sector: 0
outport_dirn: Down
##########################################################################
outportComputeNUChiplets()
Current Coordinates: (1,2,0)
Current ID: 12 | Current Sector: 0
Dest Coordinates: (1,1,1)
Dest ID: 11 | Destination Sector: 1
outport_dirn: Down
##########################################################################
outportComputeNUChiplets()
Current Coordinates: (1,2,0)
Current ID: 12 | Current Sector: 0
Dest Coordinates: (1,3,0)
Dest ID: 14 | Destination Sector: 0
outport_dirn: North
##########################################################################
outportComputeNUChiplets()
Current Coordinates: (1,2,0)
Current ID: 12 | Current Sector: 0
Dest Coordinates: (1,0,0)
Dest ID: 8 | Destination Sector: 0
outport_dirn: South
##########################################################################
outportComputeNUChiplets()
Current Coordinates: (1,1,0)
Current ID: 10 | Current Sector: 0
Dest Coordinates: (1,3,0)
Dest ID: 14 | Destination Sector: 0
outport_dirn: North
##########################################################################
outportComputeNUChiplets()
Current Coordinates: (0,1,0)
Current ID: 2 | Current Sector: 0
Dest Coordinates: (1,3,0)
Dest ID: 14 | Destination Sector: 0
outport_dirn: North
##########################################################################
outportComputeNUChiplets()
Current Coordinates: (0,3,1)
Current ID: 7 | Current Sector: 1
Dest Coordinates: (1,3,0)
Dest ID: 14 | Destination Sector: 0
outport_dirn: West
##########################################################################
outportComputeNUChiplets()
Current Coordinates: (0,2,0)
Current ID: 4 | Current Sector: 0
Dest Coordinates: (1,1,1)
Dest ID: 11 | Destination Sector: 1
outport_dirn: East
##########################################################################
outportComputeNUChiplets()
Current Coordinates: (0,1,0)
Current ID: 2 | Current Sector: 0
Dest Coordinates: (1,1,0)
Dest ID: 10 | Destination Sector: 0
outport_dirn: Up
##########################################################################
outportComputeNUChiplets()
Current Coordinates: (1,2,1)
Current ID: 13 | Current Sector: 1
Dest Coordinates: (1,0,0)
Dest ID: 8 | Destination Sector: 0
outport_dirn: Down
##########################################################################
outportComputeNUChiplets()
Current Coordinates: (1,1,0)
Current ID: 10 | Current Sector: 0
Dest Coordinates: (1,0,0)
Dest ID: 8 | Destination Sector: 0
outport_dirn: South
##########################################################################
outportComputeNUChiplets()
Current Coordinates: (1,0,0)
Current ID: 8 | Current Sector: 0
Dest Coordinates: (1,1,0)
Dest ID: 10 | Destination Sector: 0
outport_dirn: North
##########################################################################
outportComputeNUChiplets()
Current Coordinates: (1,1,1)
Current ID: 11 | Current Sector: 1
Dest Coordinates: (1,2,1)
Dest ID: 13 | Destination Sector: 1
outport_dirn: North
##########################################################################
outportComputeNUChiplets()
Current Coordinates: (1,3,0)
Current ID: 14 | Current Sector: 0
Dest Coordinates: (1,0,0)
Dest ID: 8 | Destination Sector: 0
outport_dirn: South
##########################################################################
outportComputeNUChiplets()
Current Coordinates: (1,2,0)
Current ID: 12 | Current Sector: 0
Dest Coordinates: (1,3,0)
Dest ID: 14 | Destination Sector: 0
outport_dirn: North
##########################################################################
outportComputeNUChiplets()
Current Coordinates: (0,3,0)
Current ID: 6 | Current Sector: 0
Dest Coordinates: (1,3,0)
Dest ID: 14 | Destination Sector: 0
outport_dirn: Up
##########################################################################
outportComputeNUChiplets()
Current Coordinates: (0,2,0)
Current ID: 4 | Current Sector: 0
Dest Coordinates: (1,3,0)
Dest ID: 14 | Destination Sector: 0
outport_dirn: North
##########################################################################
outportComputeNUChiplets()
Current Coordinates: (0,2,1)
Current ID: 5 | Current Sector: 1
Dest Coordinates: (1,1,0)
Dest ID: 10 | Destination Sector: 0
outport_dirn: West
##########################################################################
outportComputeNUChiplets()
Current Coordinates: (0,2,1)
Current ID: 5 | Current Sector: 1
Dest Coordinates: (1,1,1)
Dest ID: 11 | Destination Sector: 1
outport_dirn: South
##########################################################################
outportComputeNUChiplets()
Current Coordinates: (0,2,1)
Current ID: 5 | Current Sector: 1
Dest Coordinates: (1,0,0)
Dest ID: 8 | Destination Sector: 0
outport_dirn: West
##########################################################################
outportComputeNUChiplets()
Current Coordinates: (1,2,1)
Current ID: 13 | Current Sector: 1
Dest Coordinates: (1,3,1)
Dest ID: 15 | Destination Sector: 1
outport_dirn: North
##########################################################################
outportComputeNUChiplets()
Current Coordinates: (1,0,0)
Current ID: 8 | Current Sector: 0
Dest Coordinates: (1,2,0)
Dest ID: 12 | Destination Sector: 0
outport_dirn: North
##########################################################################
outportComputeNUChiplets()
Current Coordinates: (1,2,0)
Current ID: 12 | Current Sector: 0
Dest Coordinates: (1,2,1)
Dest ID: 13 | Destination Sector: 1
outport_dirn: Down
##########################################################################
outportComputeNUChiplets()
Current Coordinates: (1,2,0)
Current ID: 12 | Current Sector: 0
Dest Coordinates: (1,0,0)
Dest ID: 8 | Destination Sector: 0
outport_dirn: South
##########################################################################
outportComputeNUChiplets()
Current Coordinates: (1,1,1)
Current ID: 11 | Current Sector: 1
Dest Coordinates: (1,2,0)
Dest ID: 12 | Destination Sector: 0
outport_dirn: Down
##########################################################################
outportComputeNUChiplets()
Current Coordinates: (1,0,1)
Current ID: 9 | Current Sector: 1
Dest Coordinates: (1,1,1)
Dest ID: 11 | Destination Sector: 1
outport_dirn: North
##########################################################################
outportComputeNUChiplets()
Current Coordinates: (0,3,0)
Current ID: 6 | Current Sector: 0
Dest Coordinates: (1,3,0)
Dest ID: 14 | Destination Sector: 0
outport_dirn: Up
##########################################################################
outportComputeNUChiplets()
Current Coordinates: (0,2,0)
Current ID: 4 | Current Sector: 0
Dest Coordinates: (1,1,0)
Dest ID: 10 | Destination Sector: 0
outport_dirn: South
##########################################################################
outportComputeNUChiplets()
Current Coordinates: (0,3,1)
Current ID: 7 | Current Sector: 1
Dest Coordinates: (1,3,0)
Dest ID: 14 | Destination Sector: 0
outport_dirn: West
##########################################################################
outportComputeNUChiplets()
Current Coordinates: (0,1,1)
Current ID: 3 | Current Sector: 1
Dest Coordinates: (1,1,1)
Dest ID: 11 | Destination Sector: 1
outport_dirn: Up
##########################################################################
outportComputeNUChiplets()
Current Coordinates: (0,1,1)
Current ID: 3 | Current Sector: 1
Dest Coordinates: (1,2,0)
Dest ID: 12 | Destination Sector: 0
outport_dirn: West
##########################################################################
outportComputeNUChiplets()
Current Coordinates: (0,2,0)
Current ID: 4 | Current Sector: 0
Dest Coordinates: (1,0,0)
Dest ID: 8 | Destination Sector: 0
outport_dirn: South
##########################################################################
outportComputeNUChiplets()
Current Coordinates: (0,2,0)
Current ID: 4 | Current Sector: 0
Dest Coordinates: (1,2,1)
Dest ID: 13 | Destination Sector: 1
outport_dirn: East
##########################################################################
outportComputeNUChiplets()
Current Coordinates: (1,2,1)
Current ID: 13 | Current Sector: 1
Dest Coordinates: (1,1,0)
Dest ID: 10 | Destination Sector: 0
outport_dirn: Down
##########################################################################
outportComputeNUChiplets()
Current Coordinates: (1,1,0)
Current ID: 10 | Current Sector: 0
Dest Coordinates: (1,0,0)
Dest ID: 8 | Destination Sector: 0
outport_dirn: South
##########################################################################
outportComputeNUChiplets()
Current Coordinates: (1,2,0)
Current ID: 12 | Current Sector: 0
Dest Coordinates: (1,0,1)
Dest ID: 9 | Destination Sector: 1
outport_dirn: Down
##########################################################################
outportComputeNUChiplets()
Current Coordinates: (1,3,0)
Current ID: 14 | Current Sector: 0
Dest Coordinates: (1,0,1)
Dest ID: 9 | Destination Sector: 1
outport_dirn: Down
##########################################################################
outportComputeNUChiplets()
Current Coordinates: (1,0,1)
Current ID: 9 | Current Sector: 1
Dest Coordinates: (1,1,0)
Dest ID: 10 | Destination Sector: 0
outport_dirn: Down
##########################################################################
outportComputeNUChiplets()
Current Coordinates: (0,3,0)
Current ID: 6 | Current Sector: 0
Dest Coordinates: (1,3,0)
Dest ID: 14 | Destination Sector: 0
outport_dirn: Up
##########################################################################
outportComputeNUChiplets()
Current Coordinates: (1,1,0)
Current ID: 10 | Current Sector: 0
Dest Coordinates: (1,2,0)
Dest ID: 12 | Destination Sector: 0
outport_dirn: North
##########################################################################
outportComputeNUChiplets()
Current Coordinates: (0,1,0)
Current ID: 2 | Current Sector: 0
Dest Coordinates: (1,1,0)
Dest ID: 10 | Destination Sector: 0
outport_dirn: Up
##########################################################################
outportComputeNUChiplets()
Current Coordinates: (0,2,1)
Current ID: 5 | Current Sector: 1
Dest Coordinates: (1,2,1)
Dest ID: 13 | Destination Sector: 1
outport_dirn: Up
##########################################################################
outportComputeNUChiplets()
Current Coordinates: (0,1,0)
Current ID: 2 | Current Sector: 0
Dest Coordinates: (1,2,0)
Dest ID: 12 | Destination Sector: 0
outport_dirn: North
##########################################################################
outportComputeNUChiplets()
Current Coordinates: (0,1,0)
Current ID: 2 | Current Sector: 0
Dest Coordinates: (1,0,0)
Dest ID: 8 | Destination Sector: 0
outport_dirn: South
##########################################################################
outportComputeNUChiplets()
Current Coordinates: (0,2,0)
Current ID: 4 | Current Sector: 0
Dest Coordinates: (1,0,1)
Dest ID: 9 | Destination Sector: 1
outport_dirn: East
##########################################################################
outportComputeNUChiplets()
Current Coordinates: (0,0,1)
Current ID: 1 | Current Sector: 1
Dest Coordinates: (1,1,0)
Dest ID: 10 | Destination Sector: 0
outport_dirn: West
##########################################################################
outportComputeNUChiplets()
Current Coordinates: (0,3,0)
Current ID: 6 | Current Sector: 0
Dest Coordinates: (1,0,1)
Dest ID: 9 | Destination Sector: 1
outport_dirn: East
##########################################################################
outportComputeNUChiplets()
Current Coordinates: (1,0,1)
Current ID: 9 | Current Sector: 1
Dest Coordinates: (1,3,0)
Dest ID: 14 | Destination Sector: 0
outport_dirn: Down
##########################################################################
outportComputeNUChiplets()
Current Coordinates: (1,3,0)
Current ID: 14 | Current Sector: 0
Dest Coordinates: (1,2,1)
Dest ID: 13 | Destination Sector: 1
outport_dirn: Down
##########################################################################
outportComputeNUChiplets()
Current Coordinates: (0,3,1)
Current ID: 7 | Current Sector: 1
Dest Coordinates: (1,0,1)
Dest ID: 9 | Destination Sector: 1
outport_dirn: South
##########################################################################
outportComputeNUChiplets()
Current Coordinates: (0,2,1)
Current ID: 5 | Current Sector: 1
Dest Coordinates: (1,0,1)
Dest ID: 9 | Destination Sector: 1
outport_dirn: South
##########################################################################
outportComputeNUChiplets()
Current Coordinates: (0,2,0)
Current ID: 4 | Current Sector: 0
Dest Coordinates: (1,2,0)
Dest ID: 12 | Destination Sector: 0
outport_dirn: Up
##########################################################################
outportComputeNUChiplets()
Current Coordinates: (1,1,0)
Current ID: 10 | Current Sector: 0
Dest Coordinates: (1,2,1)
Dest ID: 13 | Destination Sector: 1
outport_dirn: Down
##########################################################################
outportComputeNUChiplets()
Current Coordinates: (1,0,0)
Current ID: 8 | Current Sector: 0
Dest Coordinates: (1,0,1)
Dest ID: 9 | Destination Sector: 1
outport_dirn: Down
##########################################################################
outportComputeNUChiplets()
Current Coordinates: (0,0,0)
Current ID: 0 | Current Sector: 0
Dest Coordinates: (1,1,0)
Dest ID: 10 | Destination Sector: 0
outport_dirn: North
##########################################################################
outportComputeNUChiplets()
Current Coordinates: (0,0,0)
Current ID: 0 | Current Sector: 0
Dest Coordinates: (1,0,0)
Dest ID: 8 | Destination Sector: 0
outport_dirn: Up
##########################################################################
outportComputeNUChiplets()
Current Coordinates: (0,0,1)
Current ID: 1 | Current Sector: 1
Dest Coordinates: (1,1,0)
Dest ID: 10 | Destination Sector: 0
outport_dirn: West
##########################################################################
outportComputeNUChiplets()
Current Coordinates: (1,2,0)
Current ID: 12 | Current Sector: 0
Dest Coordinates: (1,3,1)
Dest ID: 15 | Destination Sector: 1
outport_dirn: Down
##########################################################################
outportComputeNUChiplets()
Current Coordinates: (1,3,0)
Current ID: 14 | Current Sector: 0
Dest Coordinates: (1,1,0)
Dest ID: 10 | Destination Sector: 0
outport_dirn: South
##########################################################################
outportComputeNUChiplets()
Current Coordinates: (0,3,0)
Current ID: 6 | Current Sector: 0
Dest Coordinates: (1,2,1)
Dest ID: 13 | Destination Sector: 1
outport_dirn: East
##########################################################################
outportComputeNUChiplets()
Current Coordinates: (0,2,1)
Current ID: 5 | Current Sector: 1
Dest Coordinates: (1,0,1)
Dest ID: 9 | Destination Sector: 1
outport_dirn: South
##########################################################################
outportComputeNUChiplets()
Current Coordinates: (0,2,1)
Current ID: 5 | Current Sector: 1
Dest Coordinates: (1,1,0)
Dest ID: 10 | Destination Sector: 0
outport_dirn: West
##########################################################################
outportComputeNUChiplets()
Current Coordinates: (0,1,1)
Current ID: 3 | Current Sector: 1
Dest Coordinates: (1,0,1)
Dest ID: 9 | Destination Sector: 1
outport_dirn: South
##########################################################################
outportComputeNUChiplets()
Current Coordinates: (0,2,0)
Current ID: 4 | Current Sector: 0
Dest Coordinates: (1,3,1)
Dest ID: 15 | Destination Sector: 1
outport_dirn: East
##########################################################################
outportComputeNUChiplets()
Current Coordinates: (1,3,1)
Current ID: 15 | Current Sector: 1
Dest Coordinates: (1,0,0)
Dest ID: 8 | Destination Sector: 0
outport_dirn: Down
##########################################################################
outportComputeNUChiplets()
Current Coordinates: (0,1,0)
Current ID: 2 | Current Sector: 0
Dest Coordinates: (1,1,0)
Dest ID: 10 | Destination Sector: 0
outport_dirn: Up
##########################################################################
outportComputeNUChiplets()
Current Coordinates: (0,1,0)
Current ID: 2 | Current Sector: 0
Dest Coordinates: (1,2,1)
Dest ID: 13 | Destination Sector: 1
outport_dirn: East
##########################################################################
outportComputeNUChiplets()
Current Coordinates: (0,0,0)
Current ID: 0 | Current Sector: 0
Dest Coordinates: (1,1,0)
Dest ID: 10 | Destination Sector: 0
outport_dirn: North
##########################################################################
outportComputeNUChiplets()
Current Coordinates: (0,0,0)
Current ID: 0 | Current Sector: 0
Dest Coordinates: (1,0,1)
Dest ID: 9 | Destination Sector: 1
outport_dirn: East
##########################################################################
outportComputeNUChiplets()
Current Coordinates: (1,2,0)
Current ID: 12 | Current Sector: 0
Dest Coordinates: (1,3,0)
Dest ID: 14 | Destination Sector: 0
outport_dirn: North
##########################################################################
outportComputeNUChiplets()
Current Coordinates: (1,2,0)
Current ID: 12 | Current Sector: 0
Dest Coordinates: (1,1,0)
Dest ID: 10 | Destination Sector: 0
outport_dirn: South
##########################################################################
outportComputeNUChiplets()
Current Coordinates: (1,0,1)
Current ID: 9 | Current Sector: 1
Dest Coordinates: (1,2,0)
Dest ID: 12 | Destination Sector: 0
outport_dirn: Down
##########################################################################
outportComputeNUChiplets()
Current Coordinates: (0,3,1)
Current ID: 7 | Current Sector: 1
Dest Coordinates: (1,2,1)
Dest ID: 13 | Destination Sector: 1
outport_dirn: South
##########################################################################
outportComputeNUChiplets()
Current Coordinates: (0,2,1)
Current ID: 5 | Current Sector: 1
Dest Coordinates: (1,3,1)
Dest ID: 15 | Destination Sector: 1
outport_dirn: North
##########################################################################
outportComputeNUChiplets()
Current Coordinates: (0,1,1)
Current ID: 3 | Current Sector: 1
Dest Coordinates: (1,2,1)
Dest ID: 13 | Destination Sector: 1
outport_dirn: North
##########################################################################
outportComputeNUChiplets()
Current Coordinates: (0,1,1)
Current ID: 3 | Current Sector: 1
Dest Coordinates: (1,0,1)
Dest ID: 9 | Destination Sector: 1
outport_dirn: South
##########################################################################
outportComputeNUChiplets()
Current Coordinates: (0,2,0)
Current ID: 4 | Current Sector: 0
Dest Coordinates: (1,1,0)
Dest ID: 10 | Destination Sector: 0
outport_dirn: South
##########################################################################
outportComputeNUChiplets()
Current Coordinates: (1,3,1)
Current ID: 15 | Current Sector: 1
Dest Coordinates: (1,1,1)
Dest ID: 11 | Destination Sector: 1
outport_dirn: South
##########################################################################
outportComputeNUChiplets()
Current Coordinates: (0,3,1)
Current ID: 7 | Current Sector: 1
Dest Coordinates: (1,0,0)
Dest ID: 8 | Destination Sector: 0
outport_dirn: West
##########################################################################
outportComputeNUChiplets()
Current Coordinates: (0,1,0)
Current ID: 2 | Current Sector: 0
Dest Coordinates: (1,1,0)
Dest ID: 10 | Destination Sector: 0
outport_dirn: Up
##########################################################################
outportComputeNUChiplets()
Current Coordinates: (1,2,0)
Current ID: 12 | Current Sector: 0
Dest Coordinates: (1,1,1)
Dest ID: 11 | Destination Sector: 1
outport_dirn: Down
##########################################################################
outportComputeNUChiplets()
Current Coordinates: (0,0,1)
Current ID: 1 | Current Sector: 1
Dest Coordinates: (1,0,1)
Dest ID: 9 | Destination Sector: 1
outport_dirn: Up
##########################################################################
outportComputeNUChiplets()
Current Coordinates: (0,0,1)
Current ID: 1 | Current Sector: 1
Dest Coordinates: (1,0,1)
Dest ID: 9 | Destination Sector: 1
outport_dirn: Up
##########################################################################
outportComputeNUChiplets()
Current Coordinates: (1,1,1)
Current ID: 11 | Current Sector: 1
Dest Coordinates: (1,3,1)
Dest ID: 15 | Destination Sector: 1
outport_dirn: North
##########################################################################
outportComputeNUChiplets()
Current Coordinates: (0,0,1)
Current ID: 1 | Current Sector: 1
Dest Coordinates: (1,2,0)
Dest ID: 12 | Destination Sector: 0
outport_dirn: West
##########################################################################
outportComputeNUChiplets()
Current Coordinates: (0,2,1)
Current ID: 5 | Current Sector: 1
Dest Coordinates: (1,2,1)
Dest ID: 13 | Destination Sector: 1
outport_dirn: Up
##########################################################################
outportComputeNUChiplets()
Current Coordinates: (0,2,1)
Current ID: 5 | Current Sector: 1
Dest Coordinates: (1,2,1)
Dest ID: 13 | Destination Sector: 1
outport_dirn: Up
##########################################################################
outportComputeNUChiplets()
Current Coordinates: (0,2,0)
Current ID: 4 | Current Sector: 0
Dest Coordinates: (1,1,1)
Dest ID: 11 | Destination Sector: 1
outport_dirn: East
##########################################################################
outportComputeNUChiplets()
Current Coordinates: (1,2,1)
Current ID: 13 | Current Sector: 1
Dest Coordinates: (1,3,1)
Dest ID: 15 | Destination Sector: 1
outport_dirn: North
##########################################################################
outportComputeNUChiplets()
Current Coordinates: (1,2,1)
Current ID: 13 | Current Sector: 1
Dest Coordinates: (1,1,1)
Dest ID: 11 | Destination Sector: 1
outport_dirn: South
##########################################################################
outportComputeNUChiplets()
Current Coordinates: (0,3,1)
Current ID: 7 | Current Sector: 1
Dest Coordinates: (1,3,1)
Dest ID: 15 | Destination Sector: 1
outport_dirn: Up
##########################################################################
outportComputeNUChiplets()
Current Coordinates: (0,1,0)
Current ID: 2 | Current Sector: 0
Dest Coordinates: (1,1,0)
Dest ID: 10 | Destination Sector: 0
outport_dirn: Up
##########################################################################
outportComputeNUChiplets()
Current Coordinates: (1,1,0)
Current ID: 10 | Current Sector: 0
Dest Coordinates: (1,2,0)
Dest ID: 12 | Destination Sector: 0
outport_dirn: North
##########################################################################
outportComputeNUChiplets()
Current Coordinates: (0,3,0)
Current ID: 6 | Current Sector: 0
Dest Coordinates: (1,0,0)
Dest ID: 8 | Destination Sector: 0
outport_dirn: South
##########################################################################
outportComputeNUChiplets()
Current Coordinates: (1,2,0)
Current ID: 12 | Current Sector: 0
Dest Coordinates: (1,1,0)
Dest ID: 10 | Destination Sector: 0
outport_dirn: South
##########################################################################
outportComputeNUChiplets()
Current Coordinates: (0,0,1)
Current ID: 1 | Current Sector: 1
Dest Coordinates: (1,0,1)
Dest ID: 9 | Destination Sector: 1
outport_dirn: Up
##########################################################################
outportComputeNUChiplets()
Current Coordinates: (0,0,0)
Current ID: 0 | Current Sector: 0
Dest Coordinates: (1,2,0)
Dest ID: 12 | Destination Sector: 0
outport_dirn: North
##########################################################################
outportComputeNUChiplets()
Current Coordinates: (0,2,1)
Current ID: 5 | Current Sector: 1
Dest Coordinates: (1,1,1)
Dest ID: 11 | Destination Sector: 1
outport_dirn: South
##########################################################################
outportComputeNUChiplets()
Current Coordinates: (0,2,0)
Current ID: 4 | Current Sector: 0
Dest Coordinates: (1,0,0)
Dest ID: 8 | Destination Sector: 0
outport_dirn: South
##########################################################################
outportComputeNUChiplets()
Current Coordinates: (1,1,0)
Current ID: 10 | Current Sector: 0
Dest Coordinates: (1,2,0)
Dest ID: 12 | Destination Sector: 0
outport_dirn: North
##########################################################################
outportComputeNUChiplets()
Current Coordinates: (1,0,1)
Current ID: 9 | Current Sector: 1
Dest Coordinates: (1,1,1)
Dest ID: 11 | Destination Sector: 1
outport_dirn: North
##########################################################################
outportComputeNUChiplets()
Current Coordinates: (1,0,1)
Current ID: 9 | Current Sector: 1
Dest Coordinates: (1,3,0)
Dest ID: 14 | Destination Sector: 0
outport_dirn: Down
##########################################################################
outportComputeNUChiplets()
Current Coordinates: (0,1,0)
Current ID: 2 | Current Sector: 0
Dest Coordinates: (1,2,0)
Dest ID: 12 | Destination Sector: 0
outport_dirn: North
##########################################################################
outportComputeNUChiplets()
Current Coordinates: (0,1,1)
Current ID: 3 | Current Sector: 1
Dest Coordinates: (1,1,1)
Dest ID: 11 | Destination Sector: 1
outport_dirn: Up
##########################################################################
outportComputeNUChiplets()
Current Coordinates: (1,3,1)
Current ID: 15 | Current Sector: 1
Dest Coordinates: (1,2,1)
Dest ID: 13 | Destination Sector: 1
outport_dirn: South
##########################################################################
outportComputeNUChiplets()
Current Coordinates: (0,1,0)
Current ID: 2 | Current Sector: 0
Dest Coordinates: (1,0,0)
Dest ID: 8 | Destination Sector: 0
outport_dirn: South
##########################################################################
outportComputeNUChiplets()
Current Coordinates: (1,0,0)
Current ID: 8 | Current Sector: 0
Dest Coordinates: (1,2,0)
Dest ID: 12 | Destination Sector: 0
outport_dirn: North
##########################################################################
outportComputeNUChiplets()
Current Coordinates: (1,2,0)
Current ID: 12 | Current Sector: 0
Dest Coordinates: (1,1,1)
Dest ID: 11 | Destination Sector: 1
outport_dirn: Down
##########################################################################
outportComputeNUChiplets()
Current Coordinates: (0,0,1)
Current ID: 1 | Current Sector: 1
Dest Coordinates: (1,3,0)
Dest ID: 14 | Destination Sector: 0
outport_dirn: West
##########################################################################
outportComputeNUChiplets()
Current Coordinates: (0,2,0)
Current ID: 4 | Current Sector: 0
Dest Coordinates: (1,2,0)
Dest ID: 12 | Destination Sector: 0
outport_dirn: Up
##########################################################################
outportComputeNUChiplets()
Current Coordinates: (0,2,0)
Current ID: 4 | Current Sector: 0
Dest Coordinates: (1,1,1)
Dest ID: 11 | Destination Sector: 1
outport_dirn: East
##########################################################################
outportComputeNUChiplets()
Current Coordinates: (1,2,1)
Current ID: 13 | Current Sector: 1
Dest Coordinates: (1,0,1)
Dest ID: 9 | Destination Sector: 1
outport_dirn: South
##########################################################################
outportComputeNUChiplets()
Current Coordinates: (1,3,1)
Current ID: 15 | Current Sector: 1
Dest Coordinates: (1,0,1)
Dest ID: 9 | Destination Sector: 1
outport_dirn: South
##########################################################################
outportComputeNUChiplets()
Current Coordinates: (0,0,0)
Current ID: 0 | Current Sector: 0
Dest Coordinates: (1,0,0)
Dest ID: 8 | Destination Sector: 0
outport_dirn: Up
##########################################################################
outportComputeNUChiplets()
Current Coordinates: (1,1,0)
Current ID: 10 | Current Sector: 0
Dest Coordinates: (1,2,0)
Dest ID: 12 | Destination Sector: 0
outport_dirn: North
##########################################################################
outportComputeNUChiplets()
Current Coordinates: (1,0,1)
Current ID: 9 | Current Sector: 1
Dest Coordinates: (1,2,0)
Dest ID: 12 | Destination Sector: 0
outport_dirn: Down
##########################################################################
outportComputeNUChiplets()
Current Coordinates: (0,0,0)
Current ID: 0 | Current Sector: 0
Dest Coordinates: (1,3,0)
Dest ID: 14 | Destination Sector: 0
outport_dirn: North
##########################################################################
outportComputeNUChiplets()
Current Coordinates: (0,2,1)
Current ID: 5 | Current Sector: 1
Dest Coordinates: (1,1,1)
Dest ID: 11 | Destination Sector: 1
outport_dirn: South
##########################################################################
outportComputeNUChiplets()
Current Coordinates: (1,3,1)
Current ID: 15 | Current Sector: 1
Dest Coordinates: (1,2,1)
Dest ID: 13 | Destination Sector: 1
outport_dirn: South
##########################################################################
outportComputeNUChiplets()
Current Coordinates: (1,2,1)
Current ID: 13 | Current Sector: 1
Dest Coordinates: (1,0,0)
Dest ID: 8 | Destination Sector: 0
outport_dirn: Down
##########################################################################
outportComputeNUChiplets()
Current Coordinates: (1,2,1)
Current ID: 13 | Current Sector: 1
Dest Coordinates: (1,0,1)
Dest ID: 9 | Destination Sector: 1
outport_dirn: South
##########################################################################
outportComputeNUChiplets()
Current Coordinates: (0,0,1)
Current ID: 1 | Current Sector: 1
Dest Coordinates: (1,2,0)
Dest ID: 12 | Destination Sector: 0
outport_dirn: West
##########################################################################
outportComputeNUChiplets()
Current Coordinates: (1,1,1)
Current ID: 11 | Current Sector: 1
Dest Coordinates: (1,3,0)
Dest ID: 14 | Destination Sector: 0
outport_dirn: Down
##########################################################################
outportComputeNUChiplets()
Current Coordinates: (1,1,1)
Current ID: 11 | Current Sector: 1
Dest Coordinates: (1,0,1)
Dest ID: 9 | Destination Sector: 1
outport_dirn: South
##########################################################################
outportComputeNUChiplets()
Current Coordinates: (0,1,0)
Current ID: 2 | Current Sector: 0
Dest Coordinates: (1,3,0)
Dest ID: 14 | Destination Sector: 0
outport_dirn: North
##########################################################################
outportComputeNUChiplets()
Current Coordinates: (0,1,1)
Current ID: 3 | Current Sector: 1
Dest Coordinates: (1,1,1)
Dest ID: 11 | Destination Sector: 1
outport_dirn: Up
##########################################################################
outportComputeNUChiplets()
[...]
outport_dirn: Up
##########################################################################
outportComputeNUChiplets()
Current Coordinates: (0,2,0)
Current ID: 4 | Current Sector: 0
Dest Coordinates: (1,0,0)
Dest ID: 8 | Destination Sector: 0
outport_dirn: South
##########################################################################
outportComputeNUChiplets()
Current Coordinates: (0,3,0)
Current ID: 6 | Current Sector: 0
Dest Coordinates: (1,3,0)
Dest ID: 14 | Destination Sector: 0
outport_dirn: Up
##########################################################################
outportComputeNUChiplets()
Current Coordinates: (0,3,0)
Current ID: 6 | Current Sector: 0
Dest Coordinates: (1,0,1)
Dest ID: 9 | Destination Sector: 1
outport_dirn: East
##########################################################################
outportComputeNUChiplets()
Current Coordinates: (1,0,0)
Current ID: 8 | Current Sector: 0
Dest Coordinates: (1,3,1)
Dest ID: 15 | Destination Sector: 1
outport_dirn: Down
##########################################################################
outportComputeNUChiplets()
Current Coordinates: (1,1,0)
Current ID: 10 | Current Sector: 0
Dest Coordinates: (1,0,0)
Dest ID: 8 | Destination Sector: 0
outport_dirn: South
##########################################################################
outportComputeNUChiplets()
Current Coordinates: (0,1,0)
Current ID: 2 | Current Sector: 0
Dest Coordinates: (1,2,0)
Dest ID: 12 | Destination Sector: 0
outport_dirn: North
##########################################################################
outportComputeNUChiplets()
Current Coordinates: (0,1,0)
Current ID: 2 | Current Sector: 0
Dest Coordinates: (1,0,1)
Dest ID: 9 | Destination Sector: 1
outport_dirn: East
##########################################################################
outportComputeNUChiplets()
Current Coordinates: (1,2,0)
Current ID: 12 | Current Sector: 0
Dest Coordinates: (1,3,0)
Dest ID: 14 | Destination Sector: 0
outport_dirn: North
##########################################################################
outportComputeNUChiplets()
Current Coordinates: (1,3,0)
Current ID: 14 | Current Sector: 0
Dest Coordinates: (1,2,1)
Dest ID: 13 | Destination Sector: 1
outport_dirn: Down
##########################################################################
outportComputeNUChiplets()
Current Coordinates: (0,0,1)
Current ID: 1 | Current Sector: 1
Dest Coordinates: (1,3,0)
Dest ID: 14 | Destination Sector: 0
outport_dirn: West
##########################################################################
outportComputeNUChiplets()
Current Coordinates: (0,0,1)
Current ID: 1 | Current Sector: 1
Dest Coordinates: (1,0,1)
Dest ID: 9 | Destination Sector: 1
outport_dirn: Up
##########################################################################
outportComputeNUChiplets()
Current Coordinates: (0,2,0)
Current ID: 4 | Current Sector: 0
Dest Coordinates: (1,2,0)
Dest ID: 12 | Destination Sector: 0
outport_dirn: Up
##########################################################################
outportComputeNUChiplets()
Current Coordinates: (0,2,0)
Current ID: 4 | Current Sector: 0
Dest Coordinates: (1,2,0)
Dest ID: 12 | Destination Sector: 0
outport_dirn: Up
##########################################################################
outportComputeNUChiplets()
Current Coordinates: (0,3,0)
Current ID: 6 | Current Sector: 0
Dest Coordinates: (1,2,1)
Dest ID: 13 | Destination Sector: 1
outport_dirn: East
##########################################################################
outportComputeNUChiplets()
Current Coordinates: (1,0,0)
Current ID: 8 | Current Sector: 0
Dest Coordinates: (1,1,0)
Dest ID: 10 | Destination Sector: 0
outport_dirn: North
##########################################################################
outportComputeNUChiplets()
Current Coordinates: (0,0,0)
Current ID: 0 | Current Sector: 0
Dest Coordinates: (1,3,0)
Dest ID: 14 | Destination Sector: 0
outport_dirn: North
##########################################################################
outportComputeNUChiplets()
Current Coordinates: (0,0,0)
Current ID: 0 | Current Sector: 0
Dest Coordinates: (1,3,1)
Dest ID: 15 | Destination Sector: 1
outport_dirn: East
##########################################################################
outportComputeNUChiplets()
Current Coordinates: (0,1,0)
Current ID: 2 | Current Sector: 0
Dest Coordinates: (1,0,0)
Dest ID: 8 | Destination Sector: 0
outport_dirn: South
##########################################################################
outportComputeNUChiplets()
Current Coordinates: (1,1,0)
Current ID: 10 | Current Sector: 0
Dest Coordinates: (1,2,0)
Dest ID: 12 | Destination Sector: 0
outport_dirn: North
##########################################################################
outportComputeNUChiplets()
Current Coordinates: (0,1,1)
Current ID: 3 | Current Sector: 1
Dest Coordinates: (1,0,1)
Dest ID: 9 | Destination Sector: 1
outport_dirn: South
##########################################################################
outportComputeNUChiplets()
Current Coordinates: (0,1,1)
Current ID: 3 | Current Sector: 1
Dest Coordinates: (1,0,1)
Dest ID: 9 | Destination Sector: 1
outport_dirn: South
##########################################################################
outportComputeNUChiplets()
Current Coordinates: (1,3,1)
Current ID: 15 | Current Sector: 1
Dest Coordinates: (1,0,0)
Dest ID: 8 | Destination Sector: 0
outport_dirn: Down
##########################################################################
outportComputeNUChiplets()
Current Coordinates: (0,3,1)
Current ID: 7 | Current Sector: 1
Dest Coordinates: (1,0,1)
Dest ID: 9 | Destination Sector: 1
outport_dirn: South
##########################################################################
outportComputeNUChiplets()
Current Coordinates: (1,2,1)
Current ID: 13 | Current Sector: 1
Dest Coordinates: (1,3,0)
Dest ID: 14 | Destination Sector: 0
outport_dirn: Down
##########################################################################
outportComputeNUChiplets()
Current Coordinates: (1,0,1)
Current ID: 9 | Current Sector: 1
Dest Coordinates: (1,3,0)
Dest ID: 14 | Destination Sector: 0
outport_dirn: Down
##########################################################################
outportComputeNUChiplets()
Current Coordinates: (0,0,1)
Current ID: 1 | Current Sector: 1
Dest Coordinates: (1,3,1)
Dest ID: 15 | Destination Sector: 1
outport_dirn: North
##########################################################################
outportComputeNUChiplets()
Current Coordinates: (0,0,1)
Current ID: 1 | Current Sector: 1
Dest Coordinates: (1,0,1)
Dest ID: 9 | Destination Sector: 1
outport_dirn: Up
##########################################################################
outportComputeNUChiplets()
Current Coordinates: (0,0,1)
Current ID: 1 | Current Sector: 1
Dest Coordinates: (1,3,0)
Dest ID: 14 | Destination Sector: 0
outport_dirn: West
##########################################################################
outportComputeNUChiplets()
Current Coordinates: (0,0,0)
Current ID: 0 | Current Sector: 0
Dest Coordinates: (1,0,0)
Dest ID: 8 | Destination Sector: 0
outport_dirn: Up
##########################################################################
outportComputeNUChiplets()
Current Coordinates: (0,1,0)
Current ID: 2 | Current Sector: 0
Dest Coordinates: (1,3,0)
Dest ID: 14 | Destination Sector: 0
outport_dirn: North
##########################################################################
outportComputeNUChiplets()
Current Coordinates: (1,2,0)
Current ID: 12 | Current Sector: 0
Dest Coordinates: (1,1,0)
Dest ID: 10 | Destination Sector: 0
outport_dirn: South
##########################################################################
outportComputeNUChiplets()
Current Coordinates: (1,3,1)
Current ID: 15 | Current Sector: 1
Dest Coordinates: (1,2,0)
Dest ID: 12 | Destination Sector: 0
outport_dirn: Down
##########################################################################
outportComputeNUChiplets()
Current Coordinates: (0,3,1)
Current ID: 7 | Current Sector: 1
Dest Coordinates: (1,2,1)
Dest ID: 13 | Destination Sector: 1
outport_dirn: South
##########################################################################
outportComputeNUChiplets()
Current Coordinates: (0,2,1)
Current ID: 5 | Current Sector: 1
Dest Coordinates: (1,0,1)
Dest ID: 9 | Destination Sector: 1
outport_dirn: South
##########################################################################
outportComputeNUChiplets()
Current Coordinates: (0,2,1)
Current ID: 5 | Current Sector: 1
Dest Coordinates: (1,3,0)
Dest ID: 14 | Destination Sector: 0
outport_dirn: West
##########################################################################
outportComputeNUChiplets()
Current Coordinates: (1,2,1)
Current ID: 13 | Current Sector: 1
Dest Coordinates: (1,0,0)
Dest ID: 8 | Destination Sector: 0
outport_dirn: Down
##########################################################################
outportComputeNUChiplets()
Current Coordinates: (1,0,1)
Current ID: 9 | Current Sector: 1
Dest Coordinates: (1,0,0)
Dest ID: 8 | Destination Sector: 0
outport_dirn: Down
##########################################################################
outportComputeNUChiplets()
Current Coordinates: (0,0,1)
Current ID: 1 | Current Sector: 1
Dest Coordinates: (1,0,1)
Dest ID: 9 | Destination Sector: 1
outport_dirn: Up
##########################################################################
outportComputeNUChiplets()
Current Coordinates: (0,2,0)
Current ID: 4 | Current Sector: 0
Dest Coordinates: (1,3,0)
Dest ID: 14 | Destination Sector: 0
outport_dirn: North
##########################################################################
outportComputeNUChiplets()
Current Coordinates: (0,2,0)
Current ID: 4 | Current Sector: 0
Dest Coordinates: (1,3,0)
Dest ID: 14 | Destination Sector: 0
outport_dirn: North
##########################################################################
outportComputeNUChiplets()
Current Coordinates: (0,0,0)
Current ID: 0 | Current Sector: 0
Dest Coordinates: (1,3,0)
Dest ID: 14 | Destination Sector: 0
outport_dirn: North
##########################################################################
outportComputeNUChiplets()
Current Coordinates: (1,1,0)
Current ID: 10 | Current Sector: 0
Dest Coordinates: (1,0,1)
Dest ID: 9 | Destination Sector: 1
outport_dirn: Down
##########################################################################
outportComputeNUChiplets()
Current Coordinates: (0,0,1)
Current ID: 1 | Current Sector: 1
Dest Coordinates: (1,0,0)
Dest ID: 8 | Destination Sector: 0
outport_dirn: West
##########################################################################
outportComputeNUChiplets()
Current Coordinates: (0,3,1)
Current ID: 7 | Current Sector: 1
Dest Coordinates: (1,2,0)
Dest ID: 12 | Destination Sector: 0
outport_dirn: West
##########################################################################
outportComputeNUChiplets()
Current Coordinates: (0,1,1)
Current ID: 3 | Current Sector: 1
Dest Coordinates: (1,3,1)
Dest ID: 15 | Destination Sector: 1
outport_dirn: North
##########################################################################
outportComputeNUChiplets()
Current Coordinates: (0,1,1)
Current ID: 3 | Current Sector: 1
Dest Coordinates: (1,0,1)
Dest ID: 9 | Destination Sector: 1
outport_dirn: South
##########################################################################
outportComputeNUChiplets()
Current Coordinates: (0,2,1)
Current ID: 5 | Current Sector: 1
Dest Coordinates: (1,2,1)
Dest ID: 13 | Destination Sector: 1
outport_dirn: Up
##########################################################################
outportComputeNUChiplets()
Current Coordinates: (0,2,1)
Current ID: 5 | Current Sector: 1
Dest Coordinates: (1,0,0)
Dest ID: 8 | Destination Sector: 0
outport_dirn: West
##########################################################################
outportComputeNUChiplets()
Current Coordinates: (0,2,0)
Current ID: 4 | Current Sector: 0
Dest Coordinates: (1,0,0)
Dest ID: 8 | Destination Sector: 0
outport_dirn: South
##########################################################################
outportComputeNUChiplets()
Current Coordinates: (0,3,0)
Current ID: 6 | Current Sector: 0
Dest Coordinates: (1,3,0)
Dest ID: 14 | Destination Sector: 0
outport_dirn: Up
##########################################################################
outportComputeNUChiplets()
Current Coordinates: (0,3,0)
Current ID: 6 | Current Sector: 0
Dest Coordinates: (1,2,0)
Dest ID: 12 | Destination Sector: 0
outport_dirn: South
##########################################################################
outportComputeNUChiplets()
Current Coordinates: (0,0,0)
Current ID: 0 | Current Sector: 0
Dest Coordinates: (1,0,0)
Dest ID: 8 | Destination Sector: 0
outport_dirn: Up
##########################################################################
outportComputeNUChiplets()
Current Coordinates: (0,1,0)
Current ID: 2 | Current Sector: 0
Dest Coordinates: (1,3,0)
Dest ID: 14 | Destination Sector: 0
outport_dirn: North
##########################################################################
outportComputeNUChiplets()
Current Coordinates: (0,1,0)
Current ID: 2 | Current Sector: 0
Dest Coordinates: (1,0,1)
Dest ID: 9 | Destination Sector: 1
outport_dirn: East
##########################################################################
outportComputeNUChiplets()
Current Coordinates: (0,2,1)
Current ID: 5 | Current Sector: 1
Dest Coordinates: (1,3,1)
Dest ID: 15 | Destination Sector: 1
outport_dirn: North
##########################################################################
outportComputeNUChiplets()
Current Coordinates: (1,2,1)
Current ID: 13 | Current Sector: 1
Dest Coordinates: (1,3,0)
Dest ID: 14 | Destination Sector: 0
outport_dirn: Down
##########################################################################
outportComputeNUChiplets()
Current Coordinates: (1,1,1)
Current ID: 11 | Current Sector: 1
Dest Coordinates: (1,0,0)
Dest ID: 8 | Destination Sector: 0
outport_dirn: Down
##########################################################################
outportComputeNUChiplets()
Current Coordinates: (0,0,1)
Current ID: 1 | Current Sector: 1
Dest Coordinates: (1,0,1)
Dest ID: 9 | Destination Sector: 1
outport_dirn: Up
##########################################################################
outportComputeNUChiplets()
Current Coordinates: (0,2,0)
Current ID: 4 | Current Sector: 0
Dest Coordinates: (1,3,0)
Dest ID: 14 | Destination Sector: 0
outport_dirn: North
##########################################################################
outportComputeNUChiplets()
Current Coordinates: (0,2,0)
Current ID: 4 | Current Sector: 0
Dest Coordinates: (1,2,0)
Dest ID: 12 | Destination Sector: 0
outport_dirn: Up
##########################################################################
outportComputeNUChiplets()
Current Coordinates: (0,1,0)
Current ID: 2 | Current Sector: 0
Dest Coordinates: (1,0,0)
Dest ID: 8 | Destination Sector: 0
outport_dirn: South
##########################################################################
outportComputeNUChiplets()
Current Coordinates: (0,3,0)
Current ID: 6 | Current Sector: 0
Dest Coordinates: (1,3,0)
Dest ID: 14 | Destination Sector: 0
outport_dirn: Up
##########################################################################
outportComputeNUChiplets()
Current Coordinates: (1,0,0)
Current ID: 8 | Current Sector: 0
Dest Coordinates: (1,1,1)
Dest ID: 11 | Destination Sector: 1
outport_dirn: Down
##########################################################################
outportComputeNUChiplets()
Current Coordinates: (1,1,0)
Current ID: 10 | Current Sector: 0
Dest Coordinates: (1,0,0)
Dest ID: 8 | Destination Sector: 0
outport_dirn: South
##########################################################################
outportComputeNUChiplets()
Current Coordinates: (1,3,0)
Current ID: 14 | Current Sector: 0
Dest Coordinates: (1,1,0)
Dest ID: 10 | Destination Sector: 0
outport_dirn: South
##########################################################################
outportComputeNUChiplets()
Current Coordinates: (0,3,1)
Current ID: 7 | Current Sector: 1
Dest Coordinates: (1,3,1)
Dest ID: 15 | Destination Sector: 1
outport_dirn: Up
##########################################################################
outportComputeNUChiplets()
Current Coordinates: (0,2,1)
Current ID: 5 | Current Sector: 1
Dest Coordinates: (1,3,0)
Dest ID: 14 | Destination Sector: 0
outport_dirn: West
##########################################################################
outportComputeNUChiplets()
Current Coordinates: (0,1,1)
Current ID: 3 | Current Sector: 1
Dest Coordinates: (1,0,1)
Dest ID: 9 | Destination Sector: 1
outport_dirn: South
##########################################################################
outportComputeNUChiplets()
Current Coordinates: (0,1,1)
Current ID: 3 | Current Sector: 1
Dest Coordinates: (1,0,0)
Dest ID: 8 | Destination Sector: 0
outport_dirn: West
##########################################################################
outportComputeNUChiplets()
Current Coordinates: (1,1,1)
Current ID: 11 | Current Sector: 1
Dest Coordinates: (1,0,1)
Dest ID: 9 | Destination Sector: 1
outport_dirn: South
##########################################################################
outportComputeNUChiplets()
Current Coordinates: (0,1,0)
Current ID: 2 | Current Sector: 0
Dest Coordinates: (1,0,0)
Dest ID: 8 | Destination Sector: 0
outport_dirn: South
##########################################################################
outportComputeNUChiplets()
Current Coordinates: (0,3,0)
Current ID: 6 | Current Sector: 0
Dest Coordinates: (1,3,0)
Dest ID: 14 | Destination Sector: 0
outport_dirn: Up
##########################################################################
outportComputeNUChiplets()
Current Coordinates: (0,2,0)
Current ID: 4 | Current Sector: 0
Dest Coordinates: (1,3,0)
Dest ID: 14 | Destination Sector: 0
outport_dirn: North
##########################################################################
outportComputeNUChiplets()
Current Coordinates: (1,0,0)
Current ID: 8 | Current Sector: 0
Dest Coordinates: (1,3,0)
Dest ID: 14 | Destination Sector: 0
outport_dirn: North
##########################################################################
outportComputeNUChiplets()
Current Coordinates: (1,1,0)
Current ID: 10 | Current Sector: 0
Dest Coordinates: (1,3,0)
Dest ID: 14 | Destination Sector: 0
outport_dirn: North
##########################################################################
outportComputeNUChiplets()
Current Coordinates: (1,2,0)
Current ID: 12 | Current Sector: 0
Dest Coordinates: (1,1,0)
Dest ID: 10 | Destination Sector: 0
outport_dirn: South
##########################################################################
outportComputeNUChiplets()
Current Coordinates: (1,3,0)
Current ID: 14 | Current Sector: 0
Dest Coordinates: (1,1,0)
Dest ID: 10 | Destination Sector: 0
outport_dirn: South
##########################################################################
outportComputeNUChiplets()
Current Coordinates: (1,3,1)
Current ID: 15 | Current Sector: 1
Dest Coordinates: (1,2,0)
Dest ID: 12 | Destination Sector: 0
outport_dirn: Down
##########################################################################
outportComputeNUChiplets()
Current Coordinates: (0,0,1)
Current ID: 1 | Current Sector: 1
Dest Coordinates: (1,0,1)
Dest ID: 9 | Destination Sector: 1
outport_dirn: Up
##########################################################################
outportComputeNUChiplets()
Current Coordinates: (0,0,0)
Current ID: 0 | Current Sector: 0
Dest Coordinates: (1,0,0)
Dest ID: 8 | Destination Sector: 0
outport_dirn: Up
##########################################################################
outportComputeNUChiplets()
Current Coordinates: (0,0,0)
Current ID: 0 | Current Sector: 0
Dest Coordinates: (1,1,1)
Dest ID: 11 | Destination Sector: 1
outport_dirn: East
Exiting @ tick 1000000 because Network Tester completed simCycles
